
---------- Begin Simulation Statistics ----------
final_tick                                  360876000                       # Number of ticks from beginning of simulation (restored from checkpoints and never reset)
host_inst_rate                                 154053                       # Simulator instruction rate (inst/s)
host_mem_usage                                 718348                       # Number of bytes of host memory used
host_op_rate                                   162986                       # Simulator op (including micro ops) rate (op/s)
host_seconds                                    11.66                       # Real time elapsed on the host
host_tick_rate                               30939868                       # Simulator tick rate (ticks/s)
sim_freq                                 1000000000000                       # Frequency of simulated ticks
sim_insts                                     1796817                       # Number of instructions simulated
sim_ops                                       1901026                       # Number of ops (including micro ops) simulated
sim_seconds                                  0.000361                       # Number of seconds simulated
sim_ticks                                   360876000                       # Number of ticks simulated
system.cpu0.branchPred.BTBCorrect                   0                       # Number of correct BTB predictions (this stat may not work properly.
system.cpu0.branchPred.BTBHitPct            90.770716                       # BTB Hit Percentage
system.cpu0.branchPred.BTBHits                  86529                       # Number of BTB hits
system.cpu0.branchPred.BTBLookups               95327                       # Number of BTB lookups
system.cpu0.branchPred.RASInCorrect                 0                       # Number of incorrect RAS predictions.
system.cpu0.branchPred.condIncorrect             4455                       # Number of conditional branches incorrect
system.cpu0.branchPred.condPredicted           178036                       # Number of conditional branches predicted
system.cpu0.branchPred.indirectHits              3490                       # Number of indirect target hits.
system.cpu0.branchPred.indirectLookups           3650                       # Number of indirect predictor lookups.
system.cpu0.branchPred.indirectMisses             160                       # Number of indirect misses.
system.cpu0.branchPred.lookups                 228834                       # Number of BP lookups
system.cpu0.branchPred.usedRAS                  14944                       # Number of times the RAS was used to get a target.
system.cpu0.branchPredindirectMispredicted           65                       # Number of mispredicted indirect branches.
system.cpu0.cc_regfile_reads                  4005596                       # number of cc regfile reads
system.cpu0.cc_regfile_writes                  662315                       # number of cc regfile writes
system.cpu0.commit.amos                             0                       # Number of atomic instructions committed
system.cpu0.commit.branchMispredicts             3043                       # The number of times a branch was mispredicted
system.cpu0.commit.branches                    203412                       # Number of branches committed
system.cpu0.commit.bw_lim_events                26992                       # number cycles where commit BW limit reached
system.cpu0.commit.commitNonSpecStalls           2418                       # The number of times commit has been forced to stall to communicate backwards
system.cpu0.commit.commitSquashedInsts          39068                       # The number of squashed insts skipped by commit
system.cpu0.commit.committedInsts             1000001                       # Number of instructions committed
system.cpu0.commit.committedOps               1102176                       # Number of ops (including micro ops) committed
system.cpu0.commit.committed_per_cycle::samples       680026                       # Number of insts commited each cycle
system.cpu0.commit.committed_per_cycle::mean     1.620785                       # Number of insts commited each cycle
system.cpu0.commit.committed_per_cycle::stdev     2.111452                       # Number of insts commited each cycle
system.cpu0.commit.committed_per_cycle::underflows            0      0.00%      0.00% # Number of insts commited each cycle
system.cpu0.commit.committed_per_cycle::0       277773     40.85%     40.85% # Number of insts commited each cycle
system.cpu0.commit.committed_per_cycle::1       162779     23.94%     64.78% # Number of insts commited each cycle
system.cpu0.commit.committed_per_cycle::2        73748     10.84%     75.63% # Number of insts commited each cycle
system.cpu0.commit.committed_per_cycle::3        62147      9.14%     84.77% # Number of insts commited each cycle
system.cpu0.commit.committed_per_cycle::4        31305      4.60%     89.37% # Number of insts commited each cycle
system.cpu0.commit.committed_per_cycle::5        19264      2.83%     92.20% # Number of insts commited each cycle
system.cpu0.commit.committed_per_cycle::6        14142      2.08%     94.28% # Number of insts commited each cycle
system.cpu0.commit.committed_per_cycle::7        11876      1.75%     96.03% # Number of insts commited each cycle
system.cpu0.commit.committed_per_cycle::8        26992      3.97%    100.00% # Number of insts commited each cycle
system.cpu0.commit.committed_per_cycle::overflows            0      0.00%    100.00% # Number of insts commited each cycle
system.cpu0.commit.committed_per_cycle::min_value            0                       # Number of insts commited each cycle
system.cpu0.commit.committed_per_cycle::max_value            8                       # Number of insts commited each cycle
system.cpu0.commit.committed_per_cycle::total       680026                       # Number of insts commited each cycle
system.cpu0.commit.fp_insts                         0                       # Number of committed floating point instructions.
system.cpu0.commit.function_calls               12300                       # Number of function calls committed.
system.cpu0.commit.int_insts                   898573                       # Number of committed integer instructions.
system.cpu0.commit.loads                       216946                       # Number of loads committed
system.cpu0.commit.membars                       1198                       # Number of memory barriers committed
system.cpu0.commit.op_class_0::No_OpClass            0      0.00%      0.00% # Class of committed instruction
system.cpu0.commit.op_class_0::IntAlu          703959     63.87%     63.87% # Class of committed instruction
system.cpu0.commit.op_class_0::IntMult           3467      0.31%     64.18% # Class of committed instruction
system.cpu0.commit.op_class_0::IntDiv               0      0.00%     64.18% # Class of committed instruction
system.cpu0.commit.op_class_0::FloatAdd             0      0.00%     64.18% # Class of committed instruction
system.cpu0.commit.op_class_0::FloatCmp             0      0.00%     64.18% # Class of committed instruction
system.cpu0.commit.op_class_0::FloatCvt             0      0.00%     64.18% # Class of committed instruction
system.cpu0.commit.op_class_0::FloatMult            0      0.00%     64.18% # Class of committed instruction
system.cpu0.commit.op_class_0::FloatMultAcc            0      0.00%     64.18% # Class of committed instruction
system.cpu0.commit.op_class_0::FloatDiv             0      0.00%     64.18% # Class of committed instruction
system.cpu0.commit.op_class_0::FloatMisc            0      0.00%     64.18% # Class of committed instruction
system.cpu0.commit.op_class_0::FloatSqrt            0      0.00%     64.18% # Class of committed instruction
system.cpu0.commit.op_class_0::SimdAdd              0      0.00%     64.18% # Class of committed instruction
system.cpu0.commit.op_class_0::SimdAddAcc            0      0.00%     64.18% # Class of committed instruction
system.cpu0.commit.op_class_0::SimdAlu              0      0.00%     64.18% # Class of committed instruction
system.cpu0.commit.op_class_0::SimdCmp              0      0.00%     64.18% # Class of committed instruction
system.cpu0.commit.op_class_0::SimdCvt              0      0.00%     64.18% # Class of committed instruction
system.cpu0.commit.op_class_0::SimdMisc             0      0.00%     64.18% # Class of committed instruction
system.cpu0.commit.op_class_0::SimdMult             0      0.00%     64.18% # Class of committed instruction
system.cpu0.commit.op_class_0::SimdMultAcc            0      0.00%     64.18% # Class of committed instruction
system.cpu0.commit.op_class_0::SimdShift            0      0.00%     64.18% # Class of committed instruction
system.cpu0.commit.op_class_0::SimdShiftAcc            0      0.00%     64.18% # Class of committed instruction
system.cpu0.commit.op_class_0::SimdDiv              0      0.00%     64.18% # Class of committed instruction
system.cpu0.commit.op_class_0::SimdSqrt             0      0.00%     64.18% # Class of committed instruction
system.cpu0.commit.op_class_0::SimdFloatAdd            0      0.00%     64.18% # Class of committed instruction
system.cpu0.commit.op_class_0::SimdFloatAlu            0      0.00%     64.18% # Class of committed instruction
system.cpu0.commit.op_class_0::SimdFloatCmp            0      0.00%     64.18% # Class of committed instruction
system.cpu0.commit.op_class_0::SimdFloatCvt            0      0.00%     64.18% # Class of committed instruction
system.cpu0.commit.op_class_0::SimdFloatDiv            0      0.00%     64.18% # Class of committed instruction
system.cpu0.commit.op_class_0::SimdFloatMisc            0      0.00%     64.18% # Class of committed instruction
system.cpu0.commit.op_class_0::SimdFloatMult            0      0.00%     64.18% # Class of committed instruction
system.cpu0.commit.op_class_0::SimdFloatMultAcc            0      0.00%     64.18% # Class of committed instruction
system.cpu0.commit.op_class_0::SimdFloatSqrt            0      0.00%     64.18% # Class of committed instruction
system.cpu0.commit.op_class_0::SimdReduceAdd            0      0.00%     64.18% # Class of committed instruction
system.cpu0.commit.op_class_0::SimdReduceAlu            0      0.00%     64.18% # Class of committed instruction
system.cpu0.commit.op_class_0::SimdReduceCmp            0      0.00%     64.18% # Class of committed instruction
system.cpu0.commit.op_class_0::SimdFloatReduceAdd            0      0.00%     64.18% # Class of committed instruction
system.cpu0.commit.op_class_0::SimdFloatReduceCmp            0      0.00%     64.18% # Class of committed instruction
system.cpu0.commit.op_class_0::SimdAes              0      0.00%     64.18% # Class of committed instruction
system.cpu0.commit.op_class_0::SimdAesMix            0      0.00%     64.18% # Class of committed instruction
system.cpu0.commit.op_class_0::SimdSha1Hash            0      0.00%     64.18% # Class of committed instruction
system.cpu0.commit.op_class_0::SimdSha1Hash2            0      0.00%     64.18% # Class of committed instruction
system.cpu0.commit.op_class_0::SimdSha256Hash            0      0.00%     64.18% # Class of committed instruction
system.cpu0.commit.op_class_0::SimdSha256Hash2            0      0.00%     64.18% # Class of committed instruction
system.cpu0.commit.op_class_0::SimdShaSigma2            0      0.00%     64.18% # Class of committed instruction
system.cpu0.commit.op_class_0::SimdShaSigma3            0      0.00%     64.18% # Class of committed instruction
system.cpu0.commit.op_class_0::SimdPredAlu            0      0.00%     64.18% # Class of committed instruction
system.cpu0.commit.op_class_0::MemRead         216946     19.68%     83.87% # Class of committed instruction
system.cpu0.commit.op_class_0::MemWrite        177804     16.13%    100.00% # Class of committed instruction
system.cpu0.commit.op_class_0::FloatMemRead            0      0.00%    100.00% # Class of committed instruction
system.cpu0.commit.op_class_0::FloatMemWrite            0      0.00%    100.00% # Class of committed instruction
system.cpu0.commit.op_class_0::IprAccess            0      0.00%    100.00% # Class of committed instruction
system.cpu0.commit.op_class_0::InstPrefetch            0      0.00%    100.00% # Class of committed instruction
system.cpu0.commit.op_class_0::total          1102176                       # Class of committed instruction
system.cpu0.commit.refs                        394750                       # Number of memory references committed
system.cpu0.commit.swp_count                        0                       # Number of s/w prefetches committed
system.cpu0.commit.vec_insts                        0                       # Number of committed Vector instructions.
system.cpu0.committedInsts                    1000001                       # Number of Instructions Simulated
system.cpu0.committedOps                      1102176                       # Number of Ops (including micro ops) Simulated
system.cpu0.cpi                              0.721752                       # CPI: Cycles Per Instruction
system.cpu0.cpi_total                        0.721752                       # CPI: Total CPI of All Threads
system.cpu0.decode.BlockedCycles               179385                       # Number of cycles decode is blocked
system.cpu0.decode.BranchMispred                 1412                       # Number of times decode detected a branch misprediction
system.cpu0.decode.BranchResolved               85465                       # Number of times decode resolved a branch
system.cpu0.decode.DecodedInsts               1166487                       # Number of instructions handled by decode
system.cpu0.decode.IdleCycles                   51011                       # Number of cycles decode is idle
system.cpu0.decode.RunCycles                   412913                       # Number of cycles decode is running
system.cpu0.decode.SquashCycles                  3097                       # Number of cycles decode is squashing
system.cpu0.decode.SquashedInsts                23652                       # Number of squashed instructions handled by decode
system.cpu0.decode.UnblockCycles                40075                       # Number of cycles decode is unblocking
system.cpu0.dtb.accesses                            0                       # DTB accesses
system.cpu0.dtb.align_faults                        0                       # Number of TLB faults due to alignment restrictions
system.cpu0.dtb.domain_faults                       0                       # Number of TLB faults due to domain restrictions
system.cpu0.dtb.flush_entries                       0                       # Number of entries that have been flushed from TLB
system.cpu0.dtb.flush_tlb                           0                       # Number of times complete TLB was flushed
system.cpu0.dtb.flush_tlb_asid                      0                       # Number of times TLB was flushed by ASID
system.cpu0.dtb.flush_tlb_mva                       0                       # Number of times TLB was flushed by MVA
system.cpu0.dtb.flush_tlb_mva_asid                  0                       # Number of times TLB was flushed by MVA & ASID
system.cpu0.dtb.hits                                0                       # DTB hits
system.cpu0.dtb.inst_accesses                       0                       # ITB inst accesses
system.cpu0.dtb.inst_hits                           0                       # ITB inst hits
system.cpu0.dtb.inst_misses                         0                       # ITB inst misses
system.cpu0.dtb.misses                              0                       # DTB misses
system.cpu0.dtb.perms_faults                        0                       # Number of TLB faults due to permissions restrictions
system.cpu0.dtb.prefetch_faults                     0                       # Number of TLB faults due to prefetch
system.cpu0.dtb.read_accesses                       0                       # DTB read accesses
system.cpu0.dtb.read_hits                           0                       # DTB read hits
system.cpu0.dtb.read_misses                         0                       # DTB read misses
system.cpu0.dtb.stage2_mmu.stage2_tlb.accesses            0                       # DTB accesses
system.cpu0.dtb.stage2_mmu.stage2_tlb.align_faults            0                       # Number of TLB faults due to alignment restrictions
system.cpu0.dtb.stage2_mmu.stage2_tlb.domain_faults            0                       # Number of TLB faults due to domain restrictions
system.cpu0.dtb.stage2_mmu.stage2_tlb.flush_entries            0                       # Number of entries that have been flushed from TLB
system.cpu0.dtb.stage2_mmu.stage2_tlb.flush_tlb            0                       # Number of times complete TLB was flushed
system.cpu0.dtb.stage2_mmu.stage2_tlb.flush_tlb_asid            0                       # Number of times TLB was flushed by ASID
system.cpu0.dtb.stage2_mmu.stage2_tlb.flush_tlb_mva            0                       # Number of times TLB was flushed by MVA
system.cpu0.dtb.stage2_mmu.stage2_tlb.flush_tlb_mva_asid            0                       # Number of times TLB was flushed by MVA & ASID
system.cpu0.dtb.stage2_mmu.stage2_tlb.hits            0                       # DTB hits
system.cpu0.dtb.stage2_mmu.stage2_tlb.inst_accesses            0                       # ITB inst accesses
system.cpu0.dtb.stage2_mmu.stage2_tlb.inst_hits            0                       # ITB inst hits
system.cpu0.dtb.stage2_mmu.stage2_tlb.inst_misses            0                       # ITB inst misses
system.cpu0.dtb.stage2_mmu.stage2_tlb.misses            0                       # DTB misses
system.cpu0.dtb.stage2_mmu.stage2_tlb.perms_faults            0                       # Number of TLB faults due to permissions restrictions
system.cpu0.dtb.stage2_mmu.stage2_tlb.prefetch_faults            0                       # Number of TLB faults due to prefetch
system.cpu0.dtb.stage2_mmu.stage2_tlb.read_accesses            0                       # DTB read accesses
system.cpu0.dtb.stage2_mmu.stage2_tlb.read_hits            0                       # DTB read hits
system.cpu0.dtb.stage2_mmu.stage2_tlb.read_misses            0                       # DTB read misses
system.cpu0.dtb.stage2_mmu.stage2_tlb.walker.walkRequestOrigin_Requested::Data            0                       # Table walker requests started/completed, data/inst
system.cpu0.dtb.stage2_mmu.stage2_tlb.walker.walkRequestOrigin_Requested::Inst            0                       # Table walker requests started/completed, data/inst
system.cpu0.dtb.stage2_mmu.stage2_tlb.walker.walkRequestOrigin_Requested::total            0                       # Table walker requests started/completed, data/inst
system.cpu0.dtb.stage2_mmu.stage2_tlb.walker.walkRequestOrigin_Completed::Data            0                       # Table walker requests started/completed, data/inst
system.cpu0.dtb.stage2_mmu.stage2_tlb.walker.walkRequestOrigin_Completed::Inst            0                       # Table walker requests started/completed, data/inst
system.cpu0.dtb.stage2_mmu.stage2_tlb.walker.walkRequestOrigin_Completed::total            0                       # Table walker requests started/completed, data/inst
system.cpu0.dtb.stage2_mmu.stage2_tlb.walker.walkRequestOrigin::total            0                       # Table walker requests started/completed, data/inst
system.cpu0.dtb.stage2_mmu.stage2_tlb.walker.walks            0                       # Table walker walks requested
system.cpu0.dtb.stage2_mmu.stage2_tlb.write_accesses            0                       # DTB write accesses
system.cpu0.dtb.stage2_mmu.stage2_tlb.write_hits            0                       # DTB write hits
system.cpu0.dtb.stage2_mmu.stage2_tlb.write_misses            0                       # DTB write misses
system.cpu0.dtb.walker.walkRequestOrigin_Requested::Data            0                       # Table walker requests started/completed, data/inst
system.cpu0.dtb.walker.walkRequestOrigin_Requested::Inst            0                       # Table walker requests started/completed, data/inst
system.cpu0.dtb.walker.walkRequestOrigin_Requested::total            0                       # Table walker requests started/completed, data/inst
system.cpu0.dtb.walker.walkRequestOrigin_Completed::Data            0                       # Table walker requests started/completed, data/inst
system.cpu0.dtb.walker.walkRequestOrigin_Completed::Inst            0                       # Table walker requests started/completed, data/inst
system.cpu0.dtb.walker.walkRequestOrigin_Completed::total            0                       # Table walker requests started/completed, data/inst
system.cpu0.dtb.walker.walkRequestOrigin::total            0                       # Table walker requests started/completed, data/inst
system.cpu0.dtb.walker.walks                        0                       # Table walker walks requested
system.cpu0.dtb.write_accesses                      0                       # DTB write accesses
system.cpu0.dtb.write_hits                          0                       # DTB write hits
system.cpu0.dtb.write_misses                        0                       # DTB write misses
system.cpu0.fetch.Branches                     228834                       # Number of branches that fetch encountered
system.cpu0.fetch.CacheLines                   276664                       # Number of cache lines fetched
system.cpu0.fetch.Cycles                       668349                       # Number of cycles fetch has run and was not squashing or blocked
system.cpu0.fetch.IcacheSquashes                  252                       # Number of outstanding Icache misses that were squashed
system.cpu0.fetch.IcacheWaitRetryStallCycles          413                       # Number of stall cycles due to full MSHR
system.cpu0.fetch.Insts                       1123020                       # Number of instructions fetch has processed
system.cpu0.fetch.MiscStallCycles                 209                       # Number of cycles fetch has spent waiting on interrupts, or bad addresses, or out of MSHRs
system.cpu0.fetch.PendingTrapStallCycles           47                       # Number of stall cycles due to pending traps
system.cpu0.fetch.SquashCycles                   9018                       # Number of cycles fetch has spent squashing
system.cpu0.fetch.branchRate                 0.317053                       # Number of branch fetches per cycle
system.cpu0.fetch.icacheStallCycles             12954                       # Number of cycles fetch is stalled on an Icache miss
system.cpu0.fetch.predictedBranches            104963                       # Number of branches that fetch has predicted taken
system.cpu0.fetch.rate                       1.555962                       # Number of inst fetches per cycle
system.cpu0.fetch.rateDist::samples            686481                       # Number of instructions fetched each cycle (Total)
system.cpu0.fetch.rateDist::mean             1.800035                       # Number of instructions fetched each cycle (Total)
system.cpu0.fetch.rateDist::stdev            1.250246                       # Number of instructions fetched each cycle (Total)
system.cpu0.fetch.rateDist::underflows              0      0.00%      0.00% # Number of instructions fetched each cycle (Total)
system.cpu0.fetch.rateDist::0                  174222     25.38%     25.38% # Number of instructions fetched each cycle (Total)
system.cpu0.fetch.rateDist::1                   96218     14.02%     39.40% # Number of instructions fetched each cycle (Total)
system.cpu0.fetch.rateDist::2                  108651     15.83%     55.22% # Number of instructions fetched each cycle (Total)
system.cpu0.fetch.rateDist::3                  307390     44.78%    100.00% # Number of instructions fetched each cycle (Total)
system.cpu0.fetch.rateDist::overflows               0      0.00%    100.00% # Number of instructions fetched each cycle (Total)
system.cpu0.fetch.rateDist::min_value               0                       # Number of instructions fetched each cycle (Total)
system.cpu0.fetch.rateDist::max_value               3                       # Number of instructions fetched each cycle (Total)
system.cpu0.fetch.rateDist::total              686481                       # Number of instructions fetched each cycle (Total)
system.cpu0.idleCycles                          35272                       # Total number of cycles that the CPU has spent unscheduled due to idling
system.cpu0.iew.branchMispredicts                3087                       # Number of branch mispredicts detected at execute
system.cpu0.iew.exec_branches                  205563                       # Number of branches executed
system.cpu0.iew.exec_nop                           38                       # number of nop insts executed
system.cpu0.iew.exec_rate                    1.560186                       # Inst execution rate
system.cpu0.iew.exec_refs                      405293                       # number of memory reference insts executed
system.cpu0.iew.exec_stores                    178718                       # Number of stores executed
system.cpu0.iew.exec_swp                            0                       # number of swp insts executed
system.cpu0.iew.iewBlockCycles                   3643                       # Number of cycles IEW is blocking
system.cpu0.iew.iewBranchMispredictRate      1.501729                       # Percentage of branch mispredicts
system.cpu0.iew.iewBranchPercentage         18.254920                       # Percentage of branches executed
system.cpu0.iew.iewDispLoadInsts               226883                       # Number of dispatched load instructions
system.cpu0.iew.iewDispNonSpecInsts              1244                       # Number of dispatched non-speculative instructions
system.cpu0.iew.iewDispSquashedInsts                0                       # Number of squashed instructions skipped by dispatch
system.cpu0.iew.iewDispStoreInsts              181144                       # Number of dispatched store instructions
system.cpu0.iew.iewDispatchedInsts            1146651                       # Number of instructions dispatched to IQ
system.cpu0.iew.iewExecLoadInsts               226575                       # Number of load instructions executed
system.cpu0.iew.iewExecSquashedInsts             6410                       # Number of squashed instructions skipped in execute
system.cpu0.iew.iewExecutedInsts              1126069                       # Number of executed instructions
system.cpu0.iew.iewIQFullEvents                     3                       # Number of times the IQ has become full, causing a stall
system.cpu0.iew.iewIdleCycles                       0                       # Number of cycles IEW is idle
system.cpu0.iew.iewLSQFullEvents                10524                       # Number of times the LSQ has become full, causing a stall
system.cpu0.iew.iewSquashCycles                  3097                       # Number of cycles IEW is squashing
system.cpu0.iew.iewUnblockCycles                10528                       # Number of cycles IEW is unblocking
system.cpu0.iew.lsq.thread0.blockedLoads            0                       # Number of blocked loads due to partial load-store forwarding
system.cpu0.iew.lsq.thread0.cacheBlocked          168                       # Number of times an access to memory failed due to the cache being blocked
system.cpu0.iew.lsq.thread0.forwLoads           19429                       # Number of loads that had data forwarded from stores
system.cpu0.iew.lsq.thread0.ignoredResponses            0                       # Number of memory responses ignored because the instruction is squashed
system.cpu0.iew.lsq.thread0.invAddrLoads            0                       # Number of loads ignored due to an invalid address
system.cpu0.iew.lsq.thread0.invAddrSwpfs            0                       # Number of software prefetches ignored due to an invalid address
system.cpu0.iew.lsq.thread0.memOrderViolation           39                       # Number of memory ordering violations
system.cpu0.iew.lsq.thread0.rescheduledLoads         2306                       # Number of loads that were rescheduled
system.cpu0.iew.lsq.thread0.squashedLoads         9933                       # Number of loads squashed
system.cpu0.iew.lsq.thread0.squashedStores         3333                       # Number of stores squashed
system.cpu0.iew.memOrderViolationEvents            39                       # Number of memory order violations
system.cpu0.iew.predictedNotTakenIncorrect         3075                       # Number of branches that were predicted not taken incorrectly
system.cpu0.iew.predictedTakenIncorrect            12                       # Number of branches that were predicted taken incorrectly
system.cpu0.iew.wb_consumers                   989539                       # num instructions consuming a value
system.cpu0.iew.wb_count                      1119778                       # cumulative count of insts written-back
system.cpu0.iew.wb_fanout                    0.592844                       # average fanout of values written-back
system.cpu0.iew.wb_producers                   586642                       # num instructions producing a value
system.cpu0.iew.wb_rate                      1.551470                       # insts written-back per cycle
system.cpu0.iew.wb_sent                       1120553                       # cumulative count of insts sent to commit
system.cpu0.int_regfile_reads                 1147877                       # number of integer regfile reads
system.cpu0.int_regfile_writes                 573813                       # number of integer regfile writes
system.cpu0.ipc                              1.385517                       # IPC: Instructions Per Cycle
system.cpu0.ipc_total                        1.385517                       # IPC: Total IPC of All Threads
system.cpu0.iq.FU_type_0::No_OpClass                0      0.00%      0.00% # Type of FU issued
system.cpu0.iq.FU_type_0::IntAlu               721882     63.74%     63.74% # Type of FU issued
system.cpu0.iq.FU_type_0::IntMult                3468      0.31%     64.05% # Type of FU issued
system.cpu0.iq.FU_type_0::IntDiv                    0      0.00%     64.05% # Type of FU issued
system.cpu0.iq.FU_type_0::FloatAdd                  0      0.00%     64.05% # Type of FU issued
system.cpu0.iq.FU_type_0::FloatCmp                  0      0.00%     64.05% # Type of FU issued
system.cpu0.iq.FU_type_0::FloatCvt                  0      0.00%     64.05% # Type of FU issued
system.cpu0.iq.FU_type_0::FloatMult                 0      0.00%     64.05% # Type of FU issued
system.cpu0.iq.FU_type_0::FloatMultAcc              0      0.00%     64.05% # Type of FU issued
system.cpu0.iq.FU_type_0::FloatDiv                  0      0.00%     64.05% # Type of FU issued
system.cpu0.iq.FU_type_0::FloatMisc                 0      0.00%     64.05% # Type of FU issued
system.cpu0.iq.FU_type_0::FloatSqrt                 0      0.00%     64.05% # Type of FU issued
system.cpu0.iq.FU_type_0::SimdAdd                   9      0.00%     64.05% # Type of FU issued
system.cpu0.iq.FU_type_0::SimdAddAcc                2      0.00%     64.05% # Type of FU issued
system.cpu0.iq.FU_type_0::SimdAlu                   0      0.00%     64.05% # Type of FU issued
system.cpu0.iq.FU_type_0::SimdCmp                   0      0.00%     64.05% # Type of FU issued
system.cpu0.iq.FU_type_0::SimdCvt                   0      0.00%     64.05% # Type of FU issued
system.cpu0.iq.FU_type_0::SimdMisc                  0      0.00%     64.05% # Type of FU issued
system.cpu0.iq.FU_type_0::SimdMult                  0      0.00%     64.05% # Type of FU issued
system.cpu0.iq.FU_type_0::SimdMultAcc               0      0.00%     64.05% # Type of FU issued
system.cpu0.iq.FU_type_0::SimdShift                 4      0.00%     64.05% # Type of FU issued
system.cpu0.iq.FU_type_0::SimdShiftAcc              0      0.00%     64.05% # Type of FU issued
system.cpu0.iq.FU_type_0::SimdDiv                   0      0.00%     64.05% # Type of FU issued
system.cpu0.iq.FU_type_0::SimdSqrt                  0      0.00%     64.05% # Type of FU issued
system.cpu0.iq.FU_type_0::SimdFloatAdd              0      0.00%     64.05% # Type of FU issued
system.cpu0.iq.FU_type_0::SimdFloatAlu              0      0.00%     64.05% # Type of FU issued
system.cpu0.iq.FU_type_0::SimdFloatCmp              0      0.00%     64.05% # Type of FU issued
system.cpu0.iq.FU_type_0::SimdFloatCvt              0      0.00%     64.05% # Type of FU issued
system.cpu0.iq.FU_type_0::SimdFloatDiv              0      0.00%     64.05% # Type of FU issued
system.cpu0.iq.FU_type_0::SimdFloatMisc             0      0.00%     64.05% # Type of FU issued
system.cpu0.iq.FU_type_0::SimdFloatMult             0      0.00%     64.05% # Type of FU issued
system.cpu0.iq.FU_type_0::SimdFloatMultAcc            0      0.00%     64.05% # Type of FU issued
system.cpu0.iq.FU_type_0::SimdFloatSqrt             0      0.00%     64.05% # Type of FU issued
system.cpu0.iq.FU_type_0::SimdReduceAdd             0      0.00%     64.05% # Type of FU issued
system.cpu0.iq.FU_type_0::SimdReduceAlu             0      0.00%     64.05% # Type of FU issued
system.cpu0.iq.FU_type_0::SimdReduceCmp             0      0.00%     64.05% # Type of FU issued
system.cpu0.iq.FU_type_0::SimdFloatReduceAdd            0      0.00%     64.05% # Type of FU issued
system.cpu0.iq.FU_type_0::SimdFloatReduceCmp            0      0.00%     64.05% # Type of FU issued
system.cpu0.iq.FU_type_0::SimdAes                   0      0.00%     64.05% # Type of FU issued
system.cpu0.iq.FU_type_0::SimdAesMix                0      0.00%     64.05% # Type of FU issued
system.cpu0.iq.FU_type_0::SimdSha1Hash              0      0.00%     64.05% # Type of FU issued
system.cpu0.iq.FU_type_0::SimdSha1Hash2             0      0.00%     64.05% # Type of FU issued
system.cpu0.iq.FU_type_0::SimdSha256Hash            0      0.00%     64.05% # Type of FU issued
system.cpu0.iq.FU_type_0::SimdSha256Hash2            0      0.00%     64.05% # Type of FU issued
system.cpu0.iq.FU_type_0::SimdShaSigma2             0      0.00%     64.05% # Type of FU issued
system.cpu0.iq.FU_type_0::SimdShaSigma3             0      0.00%     64.05% # Type of FU issued
system.cpu0.iq.FU_type_0::SimdPredAlu               0      0.00%     64.05% # Type of FU issued
system.cpu0.iq.FU_type_0::MemRead              228199     20.15%     84.20% # Type of FU issued
system.cpu0.iq.FU_type_0::MemWrite             178919     15.80%    100.00% # Type of FU issued
system.cpu0.iq.FU_type_0::FloatMemRead              0      0.00%    100.00% # Type of FU issued
system.cpu0.iq.FU_type_0::FloatMemWrite             0      0.00%    100.00% # Type of FU issued
system.cpu0.iq.FU_type_0::IprAccess                 0      0.00%    100.00% # Type of FU issued
system.cpu0.iq.FU_type_0::InstPrefetch              0      0.00%    100.00% # Type of FU issued
system.cpu0.iq.FU_type_0::total               1132483                       # Type of FU issued
system.cpu0.iq.fp_alu_accesses                      0                       # Number of floating point alu accesses
system.cpu0.iq.fp_inst_queue_reads                  0                       # Number of floating instruction queue reads
system.cpu0.iq.fp_inst_queue_wakeup_accesses            0                       # Number of floating instruction queue wakeup accesses
system.cpu0.iq.fp_inst_queue_writes                 0                       # Number of floating instruction queue writes
system.cpu0.iq.fu_busy_cnt                     365862                       # FU busy when requested
system.cpu0.iq.fu_busy_rate                  0.323062                       # FU busy rate (busy events/executed inst)
system.cpu0.iq.fu_full::No_OpClass                  0      0.00%      0.00% # attempts to use FU when none available
system.cpu0.iq.fu_full::IntAlu                 193832     52.98%     52.98% # attempts to use FU when none available
system.cpu0.iq.fu_full::IntMult                     0      0.00%     52.98% # attempts to use FU when none available
system.cpu0.iq.fu_full::IntDiv                      0      0.00%     52.98% # attempts to use FU when none available
system.cpu0.iq.fu_full::FloatAdd                    0      0.00%     52.98% # attempts to use FU when none available
system.cpu0.iq.fu_full::FloatCmp                    0      0.00%     52.98% # attempts to use FU when none available
system.cpu0.iq.fu_full::FloatCvt                    0      0.00%     52.98% # attempts to use FU when none available
system.cpu0.iq.fu_full::FloatMult                   0      0.00%     52.98% # attempts to use FU when none available
system.cpu0.iq.fu_full::FloatMultAcc                0      0.00%     52.98% # attempts to use FU when none available
system.cpu0.iq.fu_full::FloatDiv                    0      0.00%     52.98% # attempts to use FU when none available
system.cpu0.iq.fu_full::FloatMisc                   0      0.00%     52.98% # attempts to use FU when none available
system.cpu0.iq.fu_full::FloatSqrt                   0      0.00%     52.98% # attempts to use FU when none available
system.cpu0.iq.fu_full::SimdAdd                     0      0.00%     52.98% # attempts to use FU when none available
system.cpu0.iq.fu_full::SimdAddAcc                  0      0.00%     52.98% # attempts to use FU when none available
system.cpu0.iq.fu_full::SimdAlu                     0      0.00%     52.98% # attempts to use FU when none available
system.cpu0.iq.fu_full::SimdCmp                     0      0.00%     52.98% # attempts to use FU when none available
system.cpu0.iq.fu_full::SimdCvt                     0      0.00%     52.98% # attempts to use FU when none available
system.cpu0.iq.fu_full::SimdMisc                    0      0.00%     52.98% # attempts to use FU when none available
system.cpu0.iq.fu_full::SimdMult                    0      0.00%     52.98% # attempts to use FU when none available
system.cpu0.iq.fu_full::SimdMultAcc                 0      0.00%     52.98% # attempts to use FU when none available
system.cpu0.iq.fu_full::SimdShift                   0      0.00%     52.98% # attempts to use FU when none available
system.cpu0.iq.fu_full::SimdShiftAcc                0      0.00%     52.98% # attempts to use FU when none available
system.cpu0.iq.fu_full::SimdDiv                     0      0.00%     52.98% # attempts to use FU when none available
system.cpu0.iq.fu_full::SimdSqrt                    0      0.00%     52.98% # attempts to use FU when none available
system.cpu0.iq.fu_full::SimdFloatAdd                0      0.00%     52.98% # attempts to use FU when none available
system.cpu0.iq.fu_full::SimdFloatAlu                0      0.00%     52.98% # attempts to use FU when none available
system.cpu0.iq.fu_full::SimdFloatCmp                0      0.00%     52.98% # attempts to use FU when none available
system.cpu0.iq.fu_full::SimdFloatCvt                0      0.00%     52.98% # attempts to use FU when none available
system.cpu0.iq.fu_full::SimdFloatDiv                0      0.00%     52.98% # attempts to use FU when none available
system.cpu0.iq.fu_full::SimdFloatMisc               0      0.00%     52.98% # attempts to use FU when none available
system.cpu0.iq.fu_full::SimdFloatMult               0      0.00%     52.98% # attempts to use FU when none available
system.cpu0.iq.fu_full::SimdFloatMultAcc            0      0.00%     52.98% # attempts to use FU when none available
system.cpu0.iq.fu_full::SimdFloatSqrt               0      0.00%     52.98% # attempts to use FU when none available
system.cpu0.iq.fu_full::SimdReduceAdd               0      0.00%     52.98% # attempts to use FU when none available
system.cpu0.iq.fu_full::SimdReduceAlu               0      0.00%     52.98% # attempts to use FU when none available
system.cpu0.iq.fu_full::SimdReduceCmp               0      0.00%     52.98% # attempts to use FU when none available
system.cpu0.iq.fu_full::SimdFloatReduceAdd            0      0.00%     52.98% # attempts to use FU when none available
system.cpu0.iq.fu_full::SimdFloatReduceCmp            0      0.00%     52.98% # attempts to use FU when none available
system.cpu0.iq.fu_full::SimdAes                     0      0.00%     52.98% # attempts to use FU when none available
system.cpu0.iq.fu_full::SimdAesMix                  0      0.00%     52.98% # attempts to use FU when none available
system.cpu0.iq.fu_full::SimdSha1Hash                0      0.00%     52.98% # attempts to use FU when none available
system.cpu0.iq.fu_full::SimdSha1Hash2               0      0.00%     52.98% # attempts to use FU when none available
system.cpu0.iq.fu_full::SimdSha256Hash              0      0.00%     52.98% # attempts to use FU when none available
system.cpu0.iq.fu_full::SimdSha256Hash2             0      0.00%     52.98% # attempts to use FU when none available
system.cpu0.iq.fu_full::SimdShaSigma2               0      0.00%     52.98% # attempts to use FU when none available
system.cpu0.iq.fu_full::SimdShaSigma3               0      0.00%     52.98% # attempts to use FU when none available
system.cpu0.iq.fu_full::SimdPredAlu                 0      0.00%     52.98% # attempts to use FU when none available
system.cpu0.iq.fu_full::MemRead                 98074     26.81%     79.79% # attempts to use FU when none available
system.cpu0.iq.fu_full::MemWrite                73956     20.21%    100.00% # attempts to use FU when none available
system.cpu0.iq.fu_full::FloatMemRead                0      0.00%    100.00% # attempts to use FU when none available
system.cpu0.iq.fu_full::FloatMemWrite               0      0.00%    100.00% # attempts to use FU when none available
system.cpu0.iq.fu_full::IprAccess                   0      0.00%    100.00% # attempts to use FU when none available
system.cpu0.iq.fu_full::InstPrefetch                0      0.00%    100.00% # attempts to use FU when none available
system.cpu0.iq.int_alu_accesses               1498345                       # Number of integer alu accesses
system.cpu0.iq.int_inst_queue_reads           3321831                       # Number of integer instruction queue reads
system.cpu0.iq.int_inst_queue_wakeup_accesses      1119778                       # Number of integer instruction queue wakeup accesses
system.cpu0.iq.int_inst_queue_writes          1191058                       # Number of integer instruction queue writes
system.cpu0.iq.iqInstsAdded                   1144165                       # Number of instructions added to the IQ (excludes non-spec)
system.cpu0.iq.iqInstsIssued                  1132483                       # Number of instructions issued
system.cpu0.iq.iqNonSpecInstsAdded               2448                       # Number of non-speculative instructions added to the IQ
system.cpu0.iq.iqSquashedInstsExamined          44411                       # Number of squashed instructions iterated over during squash; mainly for profiling
system.cpu0.iq.iqSquashedInstsIssued             4526                       # Number of squashed instructions issued
system.cpu0.iq.iqSquashedNonSpecRemoved            30                       # Number of squashed non-spec instructions that were removed
system.cpu0.iq.iqSquashedOperandsExamined       100790                       # Number of squashed operands that are examined and possibly removed from graph
system.cpu0.iq.issued_per_cycle::samples       686481                       # Number of insts issued each cycle
system.cpu0.iq.issued_per_cycle::mean        1.649693                       # Number of insts issued each cycle
system.cpu0.iq.issued_per_cycle::stdev       1.215785                       # Number of insts issued each cycle
system.cpu0.iq.issued_per_cycle::underflows            0      0.00%      0.00% # Number of insts issued each cycle
system.cpu0.iq.issued_per_cycle::0             181183     26.39%     26.39% # Number of insts issued each cycle
system.cpu0.iq.issued_per_cycle::1              96364     14.04%     40.43% # Number of insts issued each cycle
system.cpu0.iq.issued_per_cycle::2             219339     31.95%     72.38% # Number of insts issued each cycle
system.cpu0.iq.issued_per_cycle::3             162085     23.61%     95.99% # Number of insts issued each cycle
system.cpu0.iq.issued_per_cycle::4              26364      3.84%     99.83% # Number of insts issued each cycle
system.cpu0.iq.issued_per_cycle::5               1146      0.17%    100.00% # Number of insts issued each cycle
system.cpu0.iq.issued_per_cycle::6                  0      0.00%    100.00% # Number of insts issued each cycle
system.cpu0.iq.issued_per_cycle::7                  0      0.00%    100.00% # Number of insts issued each cycle
system.cpu0.iq.issued_per_cycle::8                  0      0.00%    100.00% # Number of insts issued each cycle
system.cpu0.iq.issued_per_cycle::overflows            0      0.00%    100.00% # Number of insts issued each cycle
system.cpu0.iq.issued_per_cycle::min_value            0                       # Number of insts issued each cycle
system.cpu0.iq.issued_per_cycle::max_value            5                       # Number of insts issued each cycle
system.cpu0.iq.issued_per_cycle::total         686481                       # Number of insts issued each cycle
system.cpu0.iq.rate                          1.569073                       # Inst issue rate
system.cpu0.iq.vec_alu_accesses                     0                       # Number of vector alu accesses
system.cpu0.iq.vec_inst_queue_reads                 0                       # Number of vector instruction queue reads
system.cpu0.iq.vec_inst_queue_wakeup_accesses            0                       # Number of vector instruction queue wakeup accesses
system.cpu0.iq.vec_inst_queue_writes                0                       # Number of vector instruction queue writes
system.cpu0.itb.accesses                            0                       # DTB accesses
system.cpu0.itb.align_faults                        0                       # Number of TLB faults due to alignment restrictions
system.cpu0.itb.domain_faults                       0                       # Number of TLB faults due to domain restrictions
system.cpu0.itb.flush_entries                       0                       # Number of entries that have been flushed from TLB
system.cpu0.itb.flush_tlb                           0                       # Number of times complete TLB was flushed
system.cpu0.itb.flush_tlb_asid                      0                       # Number of times TLB was flushed by ASID
system.cpu0.itb.flush_tlb_mva                       0                       # Number of times TLB was flushed by MVA
system.cpu0.itb.flush_tlb_mva_asid                  0                       # Number of times TLB was flushed by MVA & ASID
system.cpu0.itb.hits                                0                       # DTB hits
system.cpu0.itb.inst_accesses                       0                       # ITB inst accesses
system.cpu0.itb.inst_hits                           0                       # ITB inst hits
system.cpu0.itb.inst_misses                         0                       # ITB inst misses
system.cpu0.itb.misses                              0                       # DTB misses
system.cpu0.itb.perms_faults                        0                       # Number of TLB faults due to permissions restrictions
system.cpu0.itb.prefetch_faults                     0                       # Number of TLB faults due to prefetch
system.cpu0.itb.read_accesses                       0                       # DTB read accesses
system.cpu0.itb.read_hits                           0                       # DTB read hits
system.cpu0.itb.read_misses                         0                       # DTB read misses
system.cpu0.itb.stage2_mmu.stage2_tlb.accesses            0                       # DTB accesses
system.cpu0.itb.stage2_mmu.stage2_tlb.align_faults            0                       # Number of TLB faults due to alignment restrictions
system.cpu0.itb.stage2_mmu.stage2_tlb.domain_faults            0                       # Number of TLB faults due to domain restrictions
system.cpu0.itb.stage2_mmu.stage2_tlb.flush_entries            0                       # Number of entries that have been flushed from TLB
system.cpu0.itb.stage2_mmu.stage2_tlb.flush_tlb            0                       # Number of times complete TLB was flushed
system.cpu0.itb.stage2_mmu.stage2_tlb.flush_tlb_asid            0                       # Number of times TLB was flushed by ASID
system.cpu0.itb.stage2_mmu.stage2_tlb.flush_tlb_mva            0                       # Number of times TLB was flushed by MVA
system.cpu0.itb.stage2_mmu.stage2_tlb.flush_tlb_mva_asid            0                       # Number of times TLB was flushed by MVA & ASID
system.cpu0.itb.stage2_mmu.stage2_tlb.hits            0                       # DTB hits
system.cpu0.itb.stage2_mmu.stage2_tlb.inst_accesses            0                       # ITB inst accesses
system.cpu0.itb.stage2_mmu.stage2_tlb.inst_hits            0                       # ITB inst hits
system.cpu0.itb.stage2_mmu.stage2_tlb.inst_misses            0                       # ITB inst misses
system.cpu0.itb.stage2_mmu.stage2_tlb.misses            0                       # DTB misses
system.cpu0.itb.stage2_mmu.stage2_tlb.perms_faults            0                       # Number of TLB faults due to permissions restrictions
system.cpu0.itb.stage2_mmu.stage2_tlb.prefetch_faults            0                       # Number of TLB faults due to prefetch
system.cpu0.itb.stage2_mmu.stage2_tlb.read_accesses            0                       # DTB read accesses
system.cpu0.itb.stage2_mmu.stage2_tlb.read_hits            0                       # DTB read hits
system.cpu0.itb.stage2_mmu.stage2_tlb.read_misses            0                       # DTB read misses
system.cpu0.itb.stage2_mmu.stage2_tlb.walker.walkRequestOrigin_Requested::Data            0                       # Table walker requests started/completed, data/inst
system.cpu0.itb.stage2_mmu.stage2_tlb.walker.walkRequestOrigin_Requested::Inst            0                       # Table walker requests started/completed, data/inst
system.cpu0.itb.stage2_mmu.stage2_tlb.walker.walkRequestOrigin_Requested::total            0                       # Table walker requests started/completed, data/inst
system.cpu0.itb.stage2_mmu.stage2_tlb.walker.walkRequestOrigin_Completed::Data            0                       # Table walker requests started/completed, data/inst
system.cpu0.itb.stage2_mmu.stage2_tlb.walker.walkRequestOrigin_Completed::Inst            0                       # Table walker requests started/completed, data/inst
system.cpu0.itb.stage2_mmu.stage2_tlb.walker.walkRequestOrigin_Completed::total            0                       # Table walker requests started/completed, data/inst
system.cpu0.itb.stage2_mmu.stage2_tlb.walker.walkRequestOrigin::total            0                       # Table walker requests started/completed, data/inst
system.cpu0.itb.stage2_mmu.stage2_tlb.walker.walks            0                       # Table walker walks requested
system.cpu0.itb.stage2_mmu.stage2_tlb.write_accesses            0                       # DTB write accesses
system.cpu0.itb.stage2_mmu.stage2_tlb.write_hits            0                       # DTB write hits
system.cpu0.itb.stage2_mmu.stage2_tlb.write_misses            0                       # DTB write misses
system.cpu0.itb.walker.walkRequestOrigin_Requested::Data            0                       # Table walker requests started/completed, data/inst
system.cpu0.itb.walker.walkRequestOrigin_Requested::Inst            0                       # Table walker requests started/completed, data/inst
system.cpu0.itb.walker.walkRequestOrigin_Requested::total            0                       # Table walker requests started/completed, data/inst
system.cpu0.itb.walker.walkRequestOrigin_Completed::Data            0                       # Table walker requests started/completed, data/inst
system.cpu0.itb.walker.walkRequestOrigin_Completed::Inst            0                       # Table walker requests started/completed, data/inst
system.cpu0.itb.walker.walkRequestOrigin_Completed::total            0                       # Table walker requests started/completed, data/inst
system.cpu0.itb.walker.walkRequestOrigin::total            0                       # Table walker requests started/completed, data/inst
system.cpu0.itb.walker.walks                        0                       # Table walker walks requested
system.cpu0.itb.write_accesses                      0                       # DTB write accesses
system.cpu0.itb.write_hits                          0                       # DTB write hits
system.cpu0.itb.write_misses                        0                       # DTB write misses
system.cpu0.memDep0.conflictingLoads            16482                       # Number of conflicting loads.
system.cpu0.memDep0.conflictingStores           11583                       # Number of conflicting stores.
system.cpu0.memDep0.insertedLoads              226883                       # Number of loads inserted to the mem dependence unit.
system.cpu0.memDep0.insertedStores             181144                       # Number of stores inserted to the mem dependence unit.
system.cpu0.misc_regfile_reads                 430615                       # number of misc regfile reads
system.cpu0.misc_regfile_writes                  4789                       # number of misc regfile writes
system.cpu0.numCycles                          721753                       # number of cpu cycles simulated
system.cpu0.numWorkItemsCompleted                   0                       # number of work items this cpu completed
system.cpu0.numWorkItemsStarted                     0                       # number of work items this cpu started
system.cpu0.rename.BlockCycles                  21246                       # Number of cycles rename is blocking
system.cpu0.rename.CommittedMaps              1224842                       # Number of HB maps that are committed
system.cpu0.rename.IQFullEvents                    78                       # Number of times rename has blocked due to IQ full
system.cpu0.rename.IdleCycles                   85039                       # Number of cycles rename is idle
system.cpu0.rename.ROBFullEvents                10994                       # Number of times rename has blocked due to ROB full
system.cpu0.rename.RenameLookups              5079067                       # Number of register rename lookups that rename has made
system.cpu0.rename.RenamedInsts               1151433                       # Number of instructions processed by rename
system.cpu0.rename.RenamedOperands            1286509                       # Number of destination operands rename has renamed
system.cpu0.rename.RunCycles                   417729                       # Number of cycles rename is running
system.cpu0.rename.SQFullEvents                 85138                       # Number of times rename has blocked due to SQ full
system.cpu0.rename.SquashCycles                  3097                       # Number of cycles rename is squashing
system.cpu0.rename.SquashedInsts                 6407                       # Number of squashed instructions processed by rename
system.cpu0.rename.UnblockCycles               117048                       # Number of cycles rename is unblocking
system.cpu0.rename.UndoneMaps                   61642                       # Number of HB maps that are undone due to squashing
system.cpu0.rename.int_rename_lookups         1197666                       # Number of integer rename lookups
system.cpu0.rename.serializeStallCycles         42322                       # count of cycles rename stalled for serializing inst
system.cpu0.rename.serializingInsts              1255                       # count of serializing insts renamed
system.cpu0.rename.skidInsts                    73220                       # count of insts added to the skid buffer
system.cpu0.rename.tempSerializingInsts          1250                       # count of temporary serializing insts renamed
system.cpu0.rename.vec_rename_lookups            1342                       # Number of vector rename lookups
system.cpu0.rob.rob_reads                     1793966                       # The number of ROB reads
system.cpu0.rob.rob_writes                    2288971                       # The number of ROB writes
system.cpu0.timesIdled                            308                       # Number of times that the entire CPU went into an idle state and unscheduled itself
system.cpu0.vec_regfile_reads                    1270                       # number of vector regfile reads
system.cpu0.vec_regfile_writes                   1234                       # number of vector regfile writes
system.cpu0.workload.numSyscalls                   23                       # Number of system calls
system.cpu1.branchPred.BTBCorrect                   0                       # Number of correct BTB predictions (this stat may not work properly.
system.cpu1.branchPred.BTBHitPct            97.170964                       # BTB Hit Percentage
system.cpu1.branchPred.BTBHits                  30226                       # Number of BTB hits
system.cpu1.branchPred.BTBLookups               31106                       # Number of BTB lookups
system.cpu1.branchPred.RASInCorrect                59                       # Number of incorrect RAS predictions.
system.cpu1.branchPred.condIncorrect             2657                       # Number of conditional branches incorrect
system.cpu1.branchPred.condPredicted            35794                       # Number of conditional branches predicted
system.cpu1.branchPred.indirectHits                25                       # Number of indirect target hits.
system.cpu1.branchPred.indirectLookups            238                       # Number of indirect predictor lookups.
system.cpu1.branchPred.indirectMisses             213                       # Number of indirect misses.
system.cpu1.branchPred.lookups                  55298                       # Number of BP lookups
system.cpu1.branchPred.usedRAS                   6033                       # Number of times the RAS was used to get a target.
system.cpu1.branchPredindirectMispredicted           65                       # Number of mispredicted indirect branches.
system.cpu1.cc_regfile_reads                  2862285                       # number of cc regfile reads
system.cpu1.cc_regfile_writes                  342744                       # number of cc regfile writes
system.cpu1.commit.amos                             0                       # Number of atomic instructions committed
system.cpu1.commit.branchMispredicts             2381                       # The number of times a branch was mispredicted
system.cpu1.commit.branches                     48720                       # Number of branches committed
system.cpu1.commit.bw_lim_events                32350                       # number cycles where commit BW limit reached
system.cpu1.commit.commitNonSpecStalls             50                       # The number of times commit has been forced to stall to communicate backwards
system.cpu1.commit.commitSquashedInsts          14040                       # The number of squashed insts skipped by commit
system.cpu1.commit.committedInsts              796816                       # Number of instructions committed
system.cpu1.commit.committedOps                798850                       # Number of ops (including micro ops) committed
system.cpu1.commit.committed_per_cycle::samples       676540                       # Number of insts commited each cycle
system.cpu1.commit.committed_per_cycle::mean     1.180788                       # Number of insts commited each cycle
system.cpu1.commit.committed_per_cycle::stdev     1.880292                       # Number of insts commited each cycle
system.cpu1.commit.committed_per_cycle::underflows            0      0.00%      0.00% # Number of insts commited each cycle
system.cpu1.commit.committed_per_cycle::0       277271     40.98%     40.98% # Number of insts commited each cycle
system.cpu1.commit.committed_per_cycle::1       301385     44.55%     85.53% # Number of insts commited each cycle
system.cpu1.commit.committed_per_cycle::2         6185      0.91%     86.45% # Number of insts commited each cycle
system.cpu1.commit.committed_per_cycle::3        32376      4.79%     91.23% # Number of insts commited each cycle
system.cpu1.commit.committed_per_cycle::4        14432      2.13%     93.36% # Number of insts commited each cycle
system.cpu1.commit.committed_per_cycle::5         7184      1.06%     94.43% # Number of insts commited each cycle
system.cpu1.commit.committed_per_cycle::6         1980      0.29%     94.72% # Number of insts commited each cycle
system.cpu1.commit.committed_per_cycle::7         3377      0.50%     95.22% # Number of insts commited each cycle
system.cpu1.commit.committed_per_cycle::8        32350      4.78%    100.00% # Number of insts commited each cycle
system.cpu1.commit.committed_per_cycle::overflows            0      0.00%    100.00% # Number of insts commited each cycle
system.cpu1.commit.committed_per_cycle::min_value            0                       # Number of insts commited each cycle
system.cpu1.commit.committed_per_cycle::max_value            8                       # Number of insts commited each cycle
system.cpu1.commit.committed_per_cycle::total       676540                       # Number of insts commited each cycle
system.cpu1.commit.fp_insts                         0                       # Number of committed floating point instructions.
system.cpu1.commit.function_calls                5608                       # Number of function calls committed.
system.cpu1.commit.int_insts                   761427                       # Number of committed integer instructions.
system.cpu1.commit.loads                       165746                       # Number of loads committed
system.cpu1.commit.membars                         20                       # Number of memory barriers committed
system.cpu1.commit.op_class_0::No_OpClass            0      0.00%      0.00% # Class of committed instruction
system.cpu1.commit.op_class_0::IntAlu          487615     61.04%     61.04% # Class of committed instruction
system.cpu1.commit.op_class_0::IntMult             10      0.00%     61.04% # Class of committed instruction
system.cpu1.commit.op_class_0::IntDiv               0      0.00%     61.04% # Class of committed instruction
system.cpu1.commit.op_class_0::FloatAdd             0      0.00%     61.04% # Class of committed instruction
system.cpu1.commit.op_class_0::FloatCmp             0      0.00%     61.04% # Class of committed instruction
system.cpu1.commit.op_class_0::FloatCvt             0      0.00%     61.04% # Class of committed instruction
system.cpu1.commit.op_class_0::FloatMult            0      0.00%     61.04% # Class of committed instruction
system.cpu1.commit.op_class_0::FloatMultAcc            0      0.00%     61.04% # Class of committed instruction
system.cpu1.commit.op_class_0::FloatDiv             0      0.00%     61.04% # Class of committed instruction
system.cpu1.commit.op_class_0::FloatMisc            0      0.00%     61.04% # Class of committed instruction
system.cpu1.commit.op_class_0::FloatSqrt            0      0.00%     61.04% # Class of committed instruction
system.cpu1.commit.op_class_0::SimdAdd              0      0.00%     61.04% # Class of committed instruction
system.cpu1.commit.op_class_0::SimdAddAcc            0      0.00%     61.04% # Class of committed instruction
system.cpu1.commit.op_class_0::SimdAlu              0      0.00%     61.04% # Class of committed instruction
system.cpu1.commit.op_class_0::SimdCmp              0      0.00%     61.04% # Class of committed instruction
system.cpu1.commit.op_class_0::SimdCvt              0      0.00%     61.04% # Class of committed instruction
system.cpu1.commit.op_class_0::SimdMisc             0      0.00%     61.04% # Class of committed instruction
system.cpu1.commit.op_class_0::SimdMult             0      0.00%     61.04% # Class of committed instruction
system.cpu1.commit.op_class_0::SimdMultAcc            0      0.00%     61.04% # Class of committed instruction
system.cpu1.commit.op_class_0::SimdShift            0      0.00%     61.04% # Class of committed instruction
system.cpu1.commit.op_class_0::SimdShiftAcc            0      0.00%     61.04% # Class of committed instruction
system.cpu1.commit.op_class_0::SimdDiv              0      0.00%     61.04% # Class of committed instruction
system.cpu1.commit.op_class_0::SimdSqrt             0      0.00%     61.04% # Class of committed instruction
system.cpu1.commit.op_class_0::SimdFloatAdd            0      0.00%     61.04% # Class of committed instruction
system.cpu1.commit.op_class_0::SimdFloatAlu            0      0.00%     61.04% # Class of committed instruction
system.cpu1.commit.op_class_0::SimdFloatCmp            0      0.00%     61.04% # Class of committed instruction
system.cpu1.commit.op_class_0::SimdFloatCvt            0      0.00%     61.04% # Class of committed instruction
system.cpu1.commit.op_class_0::SimdFloatDiv            0      0.00%     61.04% # Class of committed instruction
system.cpu1.commit.op_class_0::SimdFloatMisc            4      0.00%     61.04% # Class of committed instruction
system.cpu1.commit.op_class_0::SimdFloatMult            0      0.00%     61.04% # Class of committed instruction
system.cpu1.commit.op_class_0::SimdFloatMultAcc            0      0.00%     61.04% # Class of committed instruction
system.cpu1.commit.op_class_0::SimdFloatSqrt            0      0.00%     61.04% # Class of committed instruction
system.cpu1.commit.op_class_0::SimdReduceAdd            0      0.00%     61.04% # Class of committed instruction
system.cpu1.commit.op_class_0::SimdReduceAlu            0      0.00%     61.04% # Class of committed instruction
system.cpu1.commit.op_class_0::SimdReduceCmp            0      0.00%     61.04% # Class of committed instruction
system.cpu1.commit.op_class_0::SimdFloatReduceAdd            0      0.00%     61.04% # Class of committed instruction
system.cpu1.commit.op_class_0::SimdFloatReduceCmp            0      0.00%     61.04% # Class of committed instruction
system.cpu1.commit.op_class_0::SimdAes              0      0.00%     61.04% # Class of committed instruction
system.cpu1.commit.op_class_0::SimdAesMix            0      0.00%     61.04% # Class of committed instruction
system.cpu1.commit.op_class_0::SimdSha1Hash            0      0.00%     61.04% # Class of committed instruction
system.cpu1.commit.op_class_0::SimdSha1Hash2            0      0.00%     61.04% # Class of committed instruction
system.cpu1.commit.op_class_0::SimdSha256Hash            0      0.00%     61.04% # Class of committed instruction
system.cpu1.commit.op_class_0::SimdSha256Hash2            0      0.00%     61.04% # Class of committed instruction
system.cpu1.commit.op_class_0::SimdShaSigma2            0      0.00%     61.04% # Class of committed instruction
system.cpu1.commit.op_class_0::SimdShaSigma3            0      0.00%     61.04% # Class of committed instruction
system.cpu1.commit.op_class_0::SimdPredAlu            0      0.00%     61.04% # Class of committed instruction
system.cpu1.commit.op_class_0::MemRead         165746     20.75%     81.79% # Class of committed instruction
system.cpu1.commit.op_class_0::MemWrite        145475     18.21%    100.00% # Class of committed instruction
system.cpu1.commit.op_class_0::FloatMemRead            0      0.00%    100.00% # Class of committed instruction
system.cpu1.commit.op_class_0::FloatMemWrite            0      0.00%    100.00% # Class of committed instruction
system.cpu1.commit.op_class_0::IprAccess            0      0.00%    100.00% # Class of committed instruction
system.cpu1.commit.op_class_0::InstPrefetch            0      0.00%    100.00% # Class of committed instruction
system.cpu1.commit.op_class_0::total           798850                       # Class of committed instruction
system.cpu1.commit.refs                        311221                       # Number of memory references committed
system.cpu1.commit.swp_count                        0                       # Number of s/w prefetches committed
system.cpu1.commit.vec_insts                        0                       # Number of committed Vector instructions.
system.cpu1.committedInsts                     796816                       # Number of Instructions Simulated
system.cpu1.committedOps                       798850                       # Number of Ops (including micro ops) Simulated
system.cpu1.cpi                              0.905796                       # CPI: Cycles Per Instruction
system.cpu1.cpi_total                        0.905796                       # CPI: Total CPI of All Threads
system.cpu1.decode.BlockedCycles               299521                       # Number of cycles decode is blocked
system.cpu1.decode.BranchMispred                  306                       # Number of times decode detected a branch misprediction
system.cpu1.decode.BranchResolved               29816                       # Number of times decode resolved a branch
system.cpu1.decode.DecodedInsts                830888                       # Number of instructions handled by decode
system.cpu1.decode.IdleCycles                   64286                       # Number of cycles decode is idle
system.cpu1.decode.RunCycles                   234434                       # Number of cycles decode is running
system.cpu1.decode.SquashCycles                  2475                       # Number of cycles decode is squashing
system.cpu1.decode.SquashedInsts                 8789                       # Number of squashed instructions handled by decode
system.cpu1.decode.UnblockCycles                78884                       # Number of cycles decode is unblocking
system.cpu1.dtb.accesses                            0                       # DTB accesses
system.cpu1.dtb.align_faults                        0                       # Number of TLB faults due to alignment restrictions
system.cpu1.dtb.domain_faults                       0                       # Number of TLB faults due to domain restrictions
system.cpu1.dtb.flush_entries                       0                       # Number of entries that have been flushed from TLB
system.cpu1.dtb.flush_tlb                           0                       # Number of times complete TLB was flushed
system.cpu1.dtb.flush_tlb_asid                      0                       # Number of times TLB was flushed by ASID
system.cpu1.dtb.flush_tlb_mva                       0                       # Number of times TLB was flushed by MVA
system.cpu1.dtb.flush_tlb_mva_asid                  0                       # Number of times TLB was flushed by MVA & ASID
system.cpu1.dtb.hits                                0                       # DTB hits
system.cpu1.dtb.inst_accesses                       0                       # ITB inst accesses
system.cpu1.dtb.inst_hits                           0                       # ITB inst hits
system.cpu1.dtb.inst_misses                         0                       # ITB inst misses
system.cpu1.dtb.misses                              0                       # DTB misses
system.cpu1.dtb.perms_faults                        0                       # Number of TLB faults due to permissions restrictions
system.cpu1.dtb.prefetch_faults                     0                       # Number of TLB faults due to prefetch
system.cpu1.dtb.read_accesses                       0                       # DTB read accesses
system.cpu1.dtb.read_hits                           0                       # DTB read hits
system.cpu1.dtb.read_misses                         0                       # DTB read misses
system.cpu1.dtb.stage2_mmu.stage2_tlb.accesses            0                       # DTB accesses
system.cpu1.dtb.stage2_mmu.stage2_tlb.align_faults            0                       # Number of TLB faults due to alignment restrictions
system.cpu1.dtb.stage2_mmu.stage2_tlb.domain_faults            0                       # Number of TLB faults due to domain restrictions
system.cpu1.dtb.stage2_mmu.stage2_tlb.flush_entries            0                       # Number of entries that have been flushed from TLB
system.cpu1.dtb.stage2_mmu.stage2_tlb.flush_tlb            0                       # Number of times complete TLB was flushed
system.cpu1.dtb.stage2_mmu.stage2_tlb.flush_tlb_asid            0                       # Number of times TLB was flushed by ASID
system.cpu1.dtb.stage2_mmu.stage2_tlb.flush_tlb_mva            0                       # Number of times TLB was flushed by MVA
system.cpu1.dtb.stage2_mmu.stage2_tlb.flush_tlb_mva_asid            0                       # Number of times TLB was flushed by MVA & ASID
system.cpu1.dtb.stage2_mmu.stage2_tlb.hits            0                       # DTB hits
system.cpu1.dtb.stage2_mmu.stage2_tlb.inst_accesses            0                       # ITB inst accesses
system.cpu1.dtb.stage2_mmu.stage2_tlb.inst_hits            0                       # ITB inst hits
system.cpu1.dtb.stage2_mmu.stage2_tlb.inst_misses            0                       # ITB inst misses
system.cpu1.dtb.stage2_mmu.stage2_tlb.misses            0                       # DTB misses
system.cpu1.dtb.stage2_mmu.stage2_tlb.perms_faults            0                       # Number of TLB faults due to permissions restrictions
system.cpu1.dtb.stage2_mmu.stage2_tlb.prefetch_faults            0                       # Number of TLB faults due to prefetch
system.cpu1.dtb.stage2_mmu.stage2_tlb.read_accesses            0                       # DTB read accesses
system.cpu1.dtb.stage2_mmu.stage2_tlb.read_hits            0                       # DTB read hits
system.cpu1.dtb.stage2_mmu.stage2_tlb.read_misses            0                       # DTB read misses
system.cpu1.dtb.stage2_mmu.stage2_tlb.walker.walkRequestOrigin_Requested::Data            0                       # Table walker requests started/completed, data/inst
system.cpu1.dtb.stage2_mmu.stage2_tlb.walker.walkRequestOrigin_Requested::Inst            0                       # Table walker requests started/completed, data/inst
system.cpu1.dtb.stage2_mmu.stage2_tlb.walker.walkRequestOrigin_Requested::total            0                       # Table walker requests started/completed, data/inst
system.cpu1.dtb.stage2_mmu.stage2_tlb.walker.walkRequestOrigin_Completed::Data            0                       # Table walker requests started/completed, data/inst
system.cpu1.dtb.stage2_mmu.stage2_tlb.walker.walkRequestOrigin_Completed::Inst            0                       # Table walker requests started/completed, data/inst
system.cpu1.dtb.stage2_mmu.stage2_tlb.walker.walkRequestOrigin_Completed::total            0                       # Table walker requests started/completed, data/inst
system.cpu1.dtb.stage2_mmu.stage2_tlb.walker.walkRequestOrigin::total            0                       # Table walker requests started/completed, data/inst
system.cpu1.dtb.stage2_mmu.stage2_tlb.walker.walks            0                       # Table walker walks requested
system.cpu1.dtb.stage2_mmu.stage2_tlb.write_accesses            0                       # DTB write accesses
system.cpu1.dtb.stage2_mmu.stage2_tlb.write_hits            0                       # DTB write hits
system.cpu1.dtb.stage2_mmu.stage2_tlb.write_misses            0                       # DTB write misses
system.cpu1.dtb.walker.walkRequestOrigin_Requested::Data            0                       # Table walker requests started/completed, data/inst
system.cpu1.dtb.walker.walkRequestOrigin_Requested::Inst            0                       # Table walker requests started/completed, data/inst
system.cpu1.dtb.walker.walkRequestOrigin_Requested::total            0                       # Table walker requests started/completed, data/inst
system.cpu1.dtb.walker.walkRequestOrigin_Completed::Data            0                       # Table walker requests started/completed, data/inst
system.cpu1.dtb.walker.walkRequestOrigin_Completed::Inst            0                       # Table walker requests started/completed, data/inst
system.cpu1.dtb.walker.walkRequestOrigin_Completed::total            0                       # Table walker requests started/completed, data/inst
system.cpu1.dtb.walker.walkRequestOrigin::total            0                       # Table walker requests started/completed, data/inst
system.cpu1.dtb.walker.walks                        0                       # Table walker walks requested
system.cpu1.dtb.write_accesses                      0                       # DTB write accesses
system.cpu1.dtb.write_hits                          0                       # DTB write hits
system.cpu1.dtb.write_misses                        0                       # DTB write misses
system.cpu1.fetch.Branches                      55298                       # Number of branches that fetch encountered
system.cpu1.fetch.CacheLines                   246356                       # Number of cache lines fetched
system.cpu1.fetch.Cycles                       663370                       # Number of cycles fetch has run and was not squashing or blocked
system.cpu1.fetch.IcacheSquashes                  369                       # Number of outstanding Icache misses that were squashed
system.cpu1.fetch.IcacheWaitRetryStallCycles          622                       # Number of stall cycles due to full MSHR
system.cpu1.fetch.Insts                        872678                       # Number of instructions fetch has processed
system.cpu1.fetch.MiscStallCycles                 186                       # Number of cycles fetch has spent waiting on interrupts, or bad addresses, or out of MSHRs
system.cpu1.fetch.PendingTrapStallCycles          139                       # Number of stall cycles due to pending traps
system.cpu1.fetch.SquashCycles                   5514                       # Number of cycles fetch has spent squashing
system.cpu1.fetch.branchRate                 0.076616                       # Number of branch fetches per cycle
system.cpu1.fetch.icacheStallCycles             12526                       # Number of cycles fetch is stalled on an Icache miss
system.cpu1.fetch.predictedBranches             36284                       # Number of branches that fetch has predicted taken
system.cpu1.fetch.rate                       1.209109                       # Number of inst fetches per cycle
system.cpu1.fetch.rateDist::samples            679600                       # Number of instructions fetched each cycle (Total)
system.cpu1.fetch.rateDist::mean             1.289813                       # Number of instructions fetched each cycle (Total)
system.cpu1.fetch.rateDist::stdev            1.228478                       # Number of instructions fetched each cycle (Total)
system.cpu1.fetch.rateDist::underflows              0      0.00%      0.00% # Number of instructions fetched each cycle (Total)
system.cpu1.fetch.rateDist::0                  245864     36.18%     36.18% # Number of instructions fetched each cycle (Total)
[...]
system.mem_ctrls.wrQLenPdf::39                      0                       # What write queue length does an incoming req see
system.mem_ctrls.wrQLenPdf::40                      0                       # What write queue length does an incoming req see
system.mem_ctrls.wrQLenPdf::41                      0                       # What write queue length does an incoming req see
system.mem_ctrls.wrQLenPdf::42                      0                       # What write queue length does an incoming req see
system.mem_ctrls.wrQLenPdf::43                      0                       # What write queue length does an incoming req see
system.mem_ctrls.wrQLenPdf::44                      0                       # What write queue length does an incoming req see
system.mem_ctrls.wrQLenPdf::45                      0                       # What write queue length does an incoming req see
system.mem_ctrls.wrQLenPdf::46                      0                       # What write queue length does an incoming req see
system.mem_ctrls.wrQLenPdf::47                      0                       # What write queue length does an incoming req see
system.mem_ctrls.wrQLenPdf::48                      0                       # What write queue length does an incoming req see
system.mem_ctrls.wrQLenPdf::49                      0                       # What write queue length does an incoming req see
system.mem_ctrls.wrQLenPdf::50                      0                       # What write queue length does an incoming req see
system.mem_ctrls.wrQLenPdf::51                      0                       # What write queue length does an incoming req see
system.mem_ctrls.wrQLenPdf::52                      0                       # What write queue length does an incoming req see
system.mem_ctrls.wrQLenPdf::53                      0                       # What write queue length does an incoming req see
system.mem_ctrls.wrQLenPdf::54                      0                       # What write queue length does an incoming req see
system.mem_ctrls.wrQLenPdf::55                      0                       # What write queue length does an incoming req see
system.mem_ctrls.wrQLenPdf::56                      0                       # What write queue length does an incoming req see
system.mem_ctrls.wrQLenPdf::57                      0                       # What write queue length does an incoming req see
system.mem_ctrls.wrQLenPdf::58                      0                       # What write queue length does an incoming req see
system.mem_ctrls.wrQLenPdf::59                      0                       # What write queue length does an incoming req see
system.mem_ctrls.wrQLenPdf::60                      0                       # What write queue length does an incoming req see
system.mem_ctrls.wrQLenPdf::61                      0                       # What write queue length does an incoming req see
system.mem_ctrls.wrQLenPdf::62                      0                       # What write queue length does an incoming req see
system.mem_ctrls.wrQLenPdf::63                      0                       # What write queue length does an incoming req see
system.mem_ctrls.bytesPerActivate::samples          626                       # Bytes accessed per row activation
system.mem_ctrls.bytesPerActivate::mean    335.744409                       # Bytes accessed per row activation
system.mem_ctrls.bytesPerActivate::gmean   204.360586                       # Bytes accessed per row activation
system.mem_ctrls.bytesPerActivate::stdev   327.360995                       # Bytes accessed per row activation
system.mem_ctrls.bytesPerActivate::0-127          194     30.99%     30.99% # Bytes accessed per row activation
system.mem_ctrls.bytesPerActivate::128-255          151     24.12%     55.11% # Bytes accessed per row activation
system.mem_ctrls.bytesPerActivate::256-383           81     12.94%     68.05% # Bytes accessed per row activation
system.mem_ctrls.bytesPerActivate::384-511           33      5.27%     73.32% # Bytes accessed per row activation
system.mem_ctrls.bytesPerActivate::512-639           21      3.35%     76.68% # Bytes accessed per row activation
system.mem_ctrls.bytesPerActivate::640-767           28      4.47%     81.15% # Bytes accessed per row activation
system.mem_ctrls.bytesPerActivate::768-895           48      7.67%     88.82% # Bytes accessed per row activation
system.mem_ctrls.bytesPerActivate::896-1023            8      1.28%     90.10% # Bytes accessed per row activation
system.mem_ctrls.bytesPerActivate::1024-1151           62      9.90%    100.00% # Bytes accessed per row activation
system.mem_ctrls.bytesPerActivate::total          626                       # Bytes accessed per row activation
system.mem_ctrls.bytesReadDRAM                 211008                       # Total number of bytes read from DRAM
system.mem_ctrls.bytesReadWrQ                       0                       # Total number of bytes read from write queue
system.mem_ctrls.bytesWritten                       0                       # Total number of bytes written to DRAM
system.mem_ctrls.bytesReadSys                  211008                       # Total read bytes from the system interface side
system.mem_ctrls.bytesWrittenSys                    0                       # Total written bytes from the system interface side
system.mem_ctrls.avgRdBW                       584.71                       # Average DRAM read bandwidth in MiByte/s
system.mem_ctrls.avgWrBW                         0.00                       # Average achieved write bandwidth in MiByte/s
system.mem_ctrls.avgRdBWSys                    584.71                       # Average system read bandwidth in MiByte/s
system.mem_ctrls.avgWrBWSys                      0.00                       # Average system write bandwidth in MiByte/s
system.mem_ctrls.peakBW                      12800.00                       # Theoretical peak bandwidth in MiByte/s
system.mem_ctrls.busUtil                         4.57                       # Data bus utilization in percentage
system.mem_ctrls.busUtilRead                     4.57                       # Data bus utilization in percentage for reads
system.mem_ctrls.busUtilWrite                    0.00                       # Data bus utilization in percentage for writes
system.mem_ctrls.totGap                     360701006                       # Total gap between requests
system.mem_ctrls.avgGap                     109402.79                       # Average gap between requests
system.mem_ctrls.masterReadBytes::.cpu0.inst        25024                       # Per-master bytes read from memory
system.mem_ctrls.masterReadBytes::.cpu0.data        45376                       # Per-master bytes read from memory
system.mem_ctrls.masterReadBytes::.cpu1.inst        31040                       # Per-master bytes read from memory
system.mem_ctrls.masterReadBytes::.cpu1.data        11392                       # Per-master bytes read from memory
system.mem_ctrls.masterReadBytes::.l2.prefetcher        98176                       # Per-master bytes read from memory
system.mem_ctrls.masterReadRate::.cpu0.inst 69342377.991332203150                       # Per-master bytes read from memory rate (Bytes/sec)
system.mem_ctrls.masterReadRate::.cpu0.data 125738480.807812109590                       # Per-master bytes read from memory rate (Bytes/sec)
system.mem_ctrls.masterReadRate::.cpu1.inst 86012924.106895446777                       # Per-master bytes read from memory rate (Bytes/sec)
system.mem_ctrls.masterReadRate::.cpu1.data 31567629.878406986594                       # Per-master bytes read from memory rate (Bytes/sec)
system.mem_ctrls.masterReadRate::.l2.prefetcher 272049124.907170355320                       # Per-master bytes read from memory rate (Bytes/sec)
system.mem_ctrls.masterReadAccesses::.cpu0.inst          391                       # Per-master read serviced memory accesses
system.mem_ctrls.masterReadAccesses::.cpu0.data          709                       # Per-master read serviced memory accesses
system.mem_ctrls.masterReadAccesses::.cpu1.inst          485                       # Per-master read serviced memory accesses
system.mem_ctrls.masterReadAccesses::.cpu1.data          178                       # Per-master read serviced memory accesses
system.mem_ctrls.masterReadAccesses::.l2.prefetcher         1534                       # Per-master read serviced memory accesses
system.mem_ctrls.masterReadTotalLat::.cpu0.inst     13202262                       # Per-master read total memory access latency
system.mem_ctrls.masterReadTotalLat::.cpu0.data     25205589                       # Per-master read total memory access latency
system.mem_ctrls.masterReadTotalLat::.cpu1.inst     15326268                       # Per-master read total memory access latency
system.mem_ctrls.masterReadTotalLat::.cpu1.data      7854250                       # Per-master read total memory access latency
system.mem_ctrls.masterReadTotalLat::.l2.prefetcher     49744933                       # Per-master read total memory access latency
system.mem_ctrls.masterReadAvgLat::.cpu0.inst     33765.38                       # Per-master read average memory access latency
system.mem_ctrls.masterReadAvgLat::.cpu0.data     35550.90                       # Per-master read average memory access latency
system.mem_ctrls.masterReadAvgLat::.cpu1.inst     31600.55                       # Per-master read average memory access latency
system.mem_ctrls.masterReadAvgLat::.cpu1.data     44125.00                       # Per-master read average memory access latency
system.mem_ctrls.masterReadAvgLat::.l2.prefetcher     32428.25                       # Per-master read average memory access latency
system.mem_ctrls.pageHitRate                    80.89                       # Row buffer hit rate, read and write combined
system.mem_ctrls.rank1.actEnergy              2013480                       # Energy for activate commands per rank (pJ)
system.mem_ctrls.rank1.preEnergy              1062600                       # Energy for precharge commands per rank (pJ)
system.mem_ctrls.rank1.readEnergy             9017820                       # Energy for read commands per rank (pJ)
system.mem_ctrls.rank1.writeEnergy                  0                       # Energy for write commands per rank (pJ)
system.mem_ctrls.rank1.refreshEnergy     28273440.000000                       # Energy for refresh commands per rank (pJ)
system.mem_ctrls.rank1.actBackEnergy        162423780                       # Energy for active background per rank (pJ)
system.mem_ctrls.rank1.preBackEnergy          1798560                       # Energy for precharge background per rank (pJ)
system.mem_ctrls.rank1.actPowerDownEnergy            0                       # Energy for active power-down per rank (pJ)
system.mem_ctrls.rank1.prePowerDownEnergy            0                       # Energy for precharge power-down per rank (pJ)
system.mem_ctrls.rank1.selfRefreshEnergy            0                       # Energy for self refresh per rank (pJ)
system.mem_ctrls.rank1.totalEnergy          204589680                       # Total energy per rank (pJ)
system.mem_ctrls.rank1.averagePower        566.925149                       # Core power per rank (mW)
system.mem_ctrls.rank1.totalIdleTime                0                       # Total Idle time Per DRAM Rank
system.mem_ctrls.rank1.memoryStateTime::IDLE      3408001                       # Time in different power states
system.mem_ctrls.rank1.memoryStateTime::REF     11960000                       # Time in different power states
system.mem_ctrls.rank1.memoryStateTime::SREF            0                       # Time in different power states
system.mem_ctrls.rank1.memoryStateTime::PRE_PDN            0                       # Time in different power states
system.mem_ctrls.rank1.memoryStateTime::ACT    345507999                       # Time in different power states
system.mem_ctrls.rank1.memoryStateTime::ACT_PDN            0                       # Time in different power states
system.mem_ctrls.rank0.actEnergy              2484720                       # Energy for activate commands per rank (pJ)
system.mem_ctrls.rank0.preEnergy              1313070                       # Energy for precharge commands per rank (pJ)
system.mem_ctrls.rank0.readEnergy            14522760                       # Energy for read commands per rank (pJ)
system.mem_ctrls.rank0.writeEnergy                  0                       # Energy for write commands per rank (pJ)
system.mem_ctrls.rank0.refreshEnergy     28273440.000000                       # Energy for refresh commands per rank (pJ)
system.mem_ctrls.rank0.actBackEnergy        155107830                       # Energy for active background per rank (pJ)
system.mem_ctrls.rank0.preBackEnergy          7959360                       # Energy for precharge background per rank (pJ)
system.mem_ctrls.rank0.actPowerDownEnergy            0                       # Energy for active power-down per rank (pJ)
system.mem_ctrls.rank0.prePowerDownEnergy            0                       # Energy for precharge power-down per rank (pJ)
system.mem_ctrls.rank0.selfRefreshEnergy            0                       # Energy for self refresh per rank (pJ)
system.mem_ctrls.rank0.totalEnergy          209661180                       # Total energy per rank (pJ)
system.mem_ctrls.rank0.averagePower        580.978452                       # Core power per rank (mW)
system.mem_ctrls.rank0.totalIdleTime                0                       # Total Idle time Per DRAM Rank
system.mem_ctrls.rank0.memoryStateTime::IDLE     19422338                       # Time in different power states
system.mem_ctrls.rank0.memoryStateTime::REF     11960000                       # Time in different power states
system.mem_ctrls.rank0.memoryStateTime::SREF            0                       # Time in different power states
system.mem_ctrls.rank0.memoryStateTime::PRE_PDN            0                       # Time in different power states
system.mem_ctrls.rank0.memoryStateTime::ACT    329493662                       # Time in different power states
system.mem_ctrls.rank0.memoryStateTime::ACT_PDN            0                       # Time in different power states
system.cpu_clk_domain.clock                       500                       # Clock period in ticks
system.tol2bus.pwrStateResidencyTicks::UNDEFINED    360876000                       # Cumulative time (in ticks) in various power states
system.tol2bus.trans_dist::ReadResp              1506                       # Transaction distribution
system.tol2bus.trans_dist::WritebackDirty          959                       # Transaction distribution
system.tol2bus.trans_dist::WritebackClean          378                       # Transaction distribution
system.tol2bus.trans_dist::HardPFReq             2319                       # Transaction distribution
system.tol2bus.trans_dist::ReadExReq             1771                       # Transaction distribution
system.tol2bus.trans_dist::ReadExResp            1771                       # Transaction distribution
system.tol2bus.trans_dist::ReadCleanReq           912                       # Transaction distribution
system.tol2bus.trans_dist::ReadSharedReq          594                       # Transaction distribution
system.tol2bus.pkt_count_system.cpu0.icache.mem_side::system.l2.cpu_side          925                       # Packet count per connected master and slave (bytes)
system.tol2bus.pkt_count_system.cpu0.dcache.mem_side::system.l2.cpu_side         5300                       # Packet count per connected master and slave (bytes)
system.tol2bus.pkt_count_system.cpu1.icache.mem_side::system.l2.cpu_side         1144                       # Packet count per connected master and slave (bytes)
system.tol2bus.pkt_count_system.cpu1.dcache.mem_side::system.l2.cpu_side          522                       # Packet count per connected master and slave (bytes)
system.tol2bus.pkt_count::total                  7891                       # Packet count per connected master and slave (bytes)
system.tol2bus.pkt_size_system.cpu0.icache.mem_side::system.l2.cpu_side        32768                       # Cumulative packet size per connected master and slave (bytes)
system.tol2bus.pkt_size_system.cpu0.dcache.mem_side::system.l2.cpu_side       204288                       # Cumulative packet size per connected master and slave (bytes)
system.tol2bus.pkt_size_system.cpu1.icache.mem_side::system.l2.cpu_side        41280                       # Cumulative packet size per connected master and slave (bytes)
system.tol2bus.pkt_size_system.cpu1.dcache.mem_side::system.l2.cpu_side        16960                       # Cumulative packet size per connected master and slave (bytes)
system.tol2bus.pkt_size::total                 295296                       # Cumulative packet size per connected master and slave (bytes)
system.tol2bus.snoops                            2319                       # Total snoops (count)
system.tol2bus.snoopTraffic                         0                       # Total snoop traffic (bytes)
system.tol2bus.snoop_fanout::samples             5596                       # Request fanout histogram
system.tol2bus.snoop_fanout::mean            0.025375                       # Request fanout histogram
system.tol2bus.snoop_fanout::stdev           0.157276                       # Request fanout histogram
system.tol2bus.snoop_fanout::underflows             0      0.00%      0.00% # Request fanout histogram
system.tol2bus.snoop_fanout::0                   5454     97.46%     97.46% # Request fanout histogram
system.tol2bus.snoop_fanout::1                    142      2.54%    100.00% # Request fanout histogram
system.tol2bus.snoop_fanout::2                      0      0.00%    100.00% # Request fanout histogram
system.tol2bus.snoop_fanout::3                      0      0.00%    100.00% # Request fanout histogram
system.tol2bus.snoop_fanout::4                      0      0.00%    100.00% # Request fanout histogram
system.tol2bus.snoop_fanout::5                      0      0.00%    100.00% # Request fanout histogram
system.tol2bus.snoop_fanout::6                      0      0.00%    100.00% # Request fanout histogram
system.tol2bus.snoop_fanout::7                      0      0.00%    100.00% # Request fanout histogram
system.tol2bus.snoop_fanout::8                      0      0.00%    100.00% # Request fanout histogram
system.tol2bus.snoop_fanout::overflows              0      0.00%    100.00% # Request fanout histogram
system.tol2bus.snoop_fanout::min_value              0                       # Request fanout histogram
system.tol2bus.snoop_fanout::max_value              1                       # Request fanout histogram
system.tol2bus.snoop_fanout::total               5596                       # Request fanout histogram
system.tol2bus.reqLayer0.occupancy            3644000                       # Layer occupancy (ticks)
system.tol2bus.reqLayer0.utilization              1.0                       # Layer utilization (%)
system.tol2bus.respLayer5.occupancy            390490                       # Layer occupancy (ticks)
system.tol2bus.respLayer5.utilization             0.1                       # Layer utilization (%)
system.tol2bus.respLayer4.occupancy            748999                       # Layer occupancy (ticks)
system.tol2bus.respLayer4.utilization             0.2                       # Layer utilization (%)
system.tol2bus.respLayer1.occupancy           3164495                       # Layer occupancy (ticks)
system.tol2bus.respLayer1.utilization             0.9                       # Layer utilization (%)
system.tol2bus.respLayer0.occupancy            619999                       # Layer occupancy (ticks)
system.tol2bus.respLayer0.utilization             0.2                       # Layer utilization (%)

---------- End Simulation Statistics   ----------
