
---------- Begin Simulation Statistics ----------
final_tick                                  314019500                       # Number of ticks from beginning of simulation (restored from checkpoints and never reset)
host_inst_rate                                 174942                       # Simulator instruction rate (inst/s)
host_mem_usage                                 718424                       # Number of bytes of host memory used
host_op_rate                                   189645                       # Simulator op (including micro ops) rate (op/s)
host_seconds                                    10.97                       # Real time elapsed on the host
host_tick_rate                               28633035                       # Simulator tick rate (ticks/s)
sim_freq                                 1000000000000                       # Frequency of simulated ticks
sim_insts                                     1918569                       # Number of instructions simulated
sim_ops                                       2079840                       # Number of ops (including micro ops) simulated
sim_seconds                                  0.000314                       # Number of seconds simulated
sim_ticks                                   314019500                       # Number of ticks simulated
system.cpu0.branchPred.BTBCorrect                   0                       # Number of correct BTB predictions (this stat may not work properly.
system.cpu0.branchPred.BTBHitPct            90.712859                       # BTB Hit Percentage
system.cpu0.branchPred.BTBHits                  79469                       # Number of BTB hits
system.cpu0.branchPred.BTBLookups               87605                       # Number of BTB lookups
system.cpu0.branchPred.RASInCorrect                 0                       # Number of incorrect RAS predictions.
system.cpu0.branchPred.condIncorrect             4172                       # Number of conditional branches incorrect
system.cpu0.branchPred.condPredicted           163745                       # Number of conditional branches predicted
system.cpu0.branchPred.indirectHits              3206                       # Number of indirect target hits.
system.cpu0.branchPred.indirectLookups           3366                       # Number of indirect predictor lookups.
system.cpu0.branchPred.indirectMisses             160                       # Number of indirect misses.
system.cpu0.branchPred.lookups                 210515                       # Number of BP lookups
system.cpu0.branchPred.usedRAS                  13754                       # Number of times the RAS was used to get a target.
system.cpu0.branchPredindirectMispredicted           65                       # Number of mispredicted indirect branches.
system.cpu0.cc_regfile_reads                  3680537                       # number of cc regfile reads
system.cpu0.cc_regfile_writes                  608591                       # number of cc regfile writes
system.cpu0.commit.amos                             0                       # Number of atomic instructions committed
system.cpu0.commit.branchMispredicts             2855                       # The number of times a branch was mispredicted
system.cpu0.commit.branches                    186876                       # Number of branches committed
system.cpu0.commit.bw_lim_events                24724                       # number cycles where commit BW limit reached
system.cpu0.commit.commitNonSpecStalls           2226                       # The number of times commit has been forced to stall to communicate backwards
system.cpu0.commit.commitSquashedInsts          36463                       # The number of squashed insts skipped by commit
system.cpu0.commit.committedInsts              918567                       # Number of instructions committed
system.cpu0.commit.committedOps               1012439                       # Number of ops (including micro ops) committed
system.cpu0.commit.committed_per_cycle::samples       586456                       # Number of insts commited each cycle
system.cpu0.commit.committed_per_cycle::mean     1.726368                       # Number of insts commited each cycle
system.cpu0.commit.committed_per_cycle::stdev     2.135228                       # Number of insts commited each cycle
system.cpu0.commit.committed_per_cycle::underflows            0      0.00%      0.00% # Number of insts commited each cycle
system.cpu0.commit.committed_per_cycle::0       216522     36.92%     36.92% # Number of insts commited each cycle
system.cpu0.commit.committed_per_cycle::1       149821     25.55%     62.47% # Number of insts commited each cycle
system.cpu0.commit.committed_per_cycle::2        68022     11.60%     74.07% # Number of insts commited each cycle
system.cpu0.commit.committed_per_cycle::3        57076      9.73%     83.80% # Number of insts commited each cycle
system.cpu0.commit.committed_per_cycle::4        28751      4.90%     88.70% # Number of insts commited each cycle
system.cpu0.commit.committed_per_cycle::5        17596      3.00%     91.70% # Number of insts commited each cycle
system.cpu0.commit.committed_per_cycle::6        13038      2.22%     93.92% # Number of insts commited each cycle
system.cpu0.commit.committed_per_cycle::7        10906      1.86%     95.78% # Number of insts commited each cycle
system.cpu0.commit.committed_per_cycle::8        24724      4.22%    100.00% # Number of insts commited each cycle
system.cpu0.commit.committed_per_cycle::overflows            0      0.00%    100.00% # Number of insts commited each cycle
system.cpu0.commit.committed_per_cycle::min_value            0                       # Number of insts commited each cycle
system.cpu0.commit.committed_per_cycle::max_value            8                       # Number of insts commited each cycle
system.cpu0.commit.committed_per_cycle::total       586456                       # Number of insts commited each cycle
system.cpu0.commit.fp_insts                         0                       # Number of committed floating point instructions.
system.cpu0.commit.function_calls               11300                       # Number of function calls committed.
system.cpu0.commit.int_insts                   825399                       # Number of committed integer instructions.
system.cpu0.commit.loads                       199273                       # Number of loads committed
system.cpu0.commit.membars                       1102                       # Number of memory barriers committed
system.cpu0.commit.op_class_0::No_OpClass            0      0.00%      0.00% # Class of committed instruction
system.cpu0.commit.op_class_0::IntAlu          646676     63.87%     63.87% # Class of committed instruction
system.cpu0.commit.op_class_0::IntMult           3182      0.31%     64.19% # Class of committed instruction
system.cpu0.commit.op_class_0::IntDiv               0      0.00%     64.19% # Class of committed instruction
system.cpu0.commit.op_class_0::FloatAdd             0      0.00%     64.19% # Class of committed instruction
system.cpu0.commit.op_class_0::FloatCmp             0      0.00%     64.19% # Class of committed instruction
system.cpu0.commit.op_class_0::FloatCvt             0      0.00%     64.19% # Class of committed instruction
system.cpu0.commit.op_class_0::FloatMult            0      0.00%     64.19% # Class of committed instruction
system.cpu0.commit.op_class_0::FloatMultAcc            0      0.00%     64.19% # Class of committed instruction
system.cpu0.commit.op_class_0::FloatDiv             0      0.00%     64.19% # Class of committed instruction
system.cpu0.commit.op_class_0::FloatMisc            0      0.00%     64.19% # Class of committed instruction
system.cpu0.commit.op_class_0::FloatSqrt            0      0.00%     64.19% # Class of committed instruction
system.cpu0.commit.op_class_0::SimdAdd              0      0.00%     64.19% # Class of committed instruction
system.cpu0.commit.op_class_0::SimdAddAcc            0      0.00%     64.19% # Class of committed instruction
system.cpu0.commit.op_class_0::SimdAlu              0      0.00%     64.19% # Class of committed instruction
system.cpu0.commit.op_class_0::SimdCmp              0      0.00%     64.19% # Class of committed instruction
system.cpu0.commit.op_class_0::SimdCvt              0      0.00%     64.19% # Class of committed instruction
system.cpu0.commit.op_class_0::SimdMisc             0      0.00%     64.19% # Class of committed instruction
system.cpu0.commit.op_class_0::SimdMult             0      0.00%     64.19% # Class of committed instruction
system.cpu0.commit.op_class_0::SimdMultAcc            0      0.00%     64.19% # Class of committed instruction
system.cpu0.commit.op_class_0::SimdShift            0      0.00%     64.19% # Class of committed instruction
system.cpu0.commit.op_class_0::SimdShiftAcc            0      0.00%     64.19% # Class of committed instruction
system.cpu0.commit.op_class_0::SimdDiv              0      0.00%     64.19% # Class of committed instruction
system.cpu0.commit.op_class_0::SimdSqrt             0      0.00%     64.19% # Class of committed instruction
system.cpu0.commit.op_class_0::SimdFloatAdd            0      0.00%     64.19% # Class of committed instruction
system.cpu0.commit.op_class_0::SimdFloatAlu            0      0.00%     64.19% # Class of committed instruction
system.cpu0.commit.op_class_0::SimdFloatCmp            0      0.00%     64.19% # Class of committed instruction
system.cpu0.commit.op_class_0::SimdFloatCvt            0      0.00%     64.19% # Class of committed instruction
system.cpu0.commit.op_class_0::SimdFloatDiv            0      0.00%     64.19% # Class of committed instruction
system.cpu0.commit.op_class_0::SimdFloatMisc            0      0.00%     64.19% # Class of committed instruction
system.cpu0.commit.op_class_0::SimdFloatMult            0      0.00%     64.19% # Class of committed instruction
system.cpu0.commit.op_class_0::SimdFloatMultAcc            0      0.00%     64.19% # Class of committed instruction
system.cpu0.commit.op_class_0::SimdFloatSqrt            0      0.00%     64.19% # Class of committed instruction
system.cpu0.commit.op_class_0::SimdReduceAdd            0      0.00%     64.19% # Class of committed instruction
system.cpu0.commit.op_class_0::SimdReduceAlu            0      0.00%     64.19% # Class of committed instruction
system.cpu0.commit.op_class_0::SimdReduceCmp            0      0.00%     64.19% # Class of committed instruction
system.cpu0.commit.op_class_0::SimdFloatReduceAdd            0      0.00%     64.19% # Class of committed instruction
system.cpu0.commit.op_class_0::SimdFloatReduceCmp            0      0.00%     64.19% # Class of committed instruction
system.cpu0.commit.op_class_0::SimdAes              0      0.00%     64.19% # Class of committed instruction
system.cpu0.commit.op_class_0::SimdAesMix            0      0.00%     64.19% # Class of committed instruction
system.cpu0.commit.op_class_0::SimdSha1Hash            0      0.00%     64.19% # Class of committed instruction
system.cpu0.commit.op_class_0::SimdSha1Hash2            0      0.00%     64.19% # Class of committed instruction
system.cpu0.commit.op_class_0::SimdSha256Hash            0      0.00%     64.19% # Class of committed instruction
system.cpu0.commit.op_class_0::SimdSha256Hash2            0      0.00%     64.19% # Class of committed instruction
system.cpu0.commit.op_class_0::SimdShaSigma2            0      0.00%     64.19% # Class of committed instruction
system.cpu0.commit.op_class_0::SimdShaSigma3            0      0.00%     64.19% # Class of committed instruction
system.cpu0.commit.op_class_0::SimdPredAlu            0      0.00%     64.19% # Class of committed instruction
system.cpu0.commit.op_class_0::MemRead         199273     19.68%     83.87% # Class of committed instruction
system.cpu0.commit.op_class_0::MemWrite        163308     16.13%    100.00% # Class of committed instruction
system.cpu0.commit.op_class_0::FloatMemRead            0      0.00%    100.00% # Class of committed instruction
system.cpu0.commit.op_class_0::FloatMemWrite            0      0.00%    100.00% # Class of committed instruction
system.cpu0.commit.op_class_0::IprAccess            0      0.00%    100.00% # Class of committed instruction
system.cpu0.commit.op_class_0::InstPrefetch            0      0.00%    100.00% # Class of committed instruction
system.cpu0.commit.op_class_0::total          1012439                       # Class of committed instruction
system.cpu0.commit.refs                        362581                       # Number of memory references committed
system.cpu0.commit.swp_count                        0                       # Number of s/w prefetches committed
system.cpu0.commit.vec_insts                        0                       # Number of committed Vector instructions.
system.cpu0.committedInsts                     918567                       # Number of Instructions Simulated
system.cpu0.committedOps                      1012439                       # Number of Ops (including micro ops) Simulated
system.cpu0.cpi                              0.683717                       # CPI: Cycles Per Instruction
system.cpu0.cpi_total                        0.683717                       # CPI: Total CPI of All Threads
system.cpu0.decode.BlockedCycles               125391                       # Number of cycles decode is blocked
system.cpu0.decode.BranchMispred                 1317                       # Number of times decode detected a branch misprediction
system.cpu0.decode.BranchResolved               78497                       # Number of times decode resolved a branch
system.cpu0.decode.DecodedInsts               1072547                       # Number of instructions handled by decode
system.cpu0.decode.IdleCycles                   47530                       # Number of cycles decode is idle
system.cpu0.decode.RunCycles                   379701                       # Number of cycles decode is running
system.cpu0.decode.SquashCycles                  2909                       # Number of cycles decode is squashing
system.cpu0.decode.SquashedInsts                22042                       # Number of squashed instructions handled by decode
system.cpu0.decode.UnblockCycles                36960                       # Number of cycles decode is unblocking
system.cpu0.dtb.accesses                            0                       # DTB accesses
system.cpu0.dtb.align_faults                        0                       # Number of TLB faults due to alignment restrictions
system.cpu0.dtb.domain_faults                       0                       # Number of TLB faults due to domain restrictions
system.cpu0.dtb.flush_entries                       0                       # Number of entries that have been flushed from TLB
system.cpu0.dtb.flush_tlb                           0                       # Number of times complete TLB was flushed
system.cpu0.dtb.flush_tlb_asid                      0                       # Number of times TLB was flushed by ASID
system.cpu0.dtb.flush_tlb_mva                       0                       # Number of times TLB was flushed by MVA
system.cpu0.dtb.flush_tlb_mva_asid                  0                       # Number of times TLB was flushed by MVA & ASID
system.cpu0.dtb.hits                                0                       # DTB hits
system.cpu0.dtb.inst_accesses                       0                       # ITB inst accesses
system.cpu0.dtb.inst_hits                           0                       # ITB inst hits
system.cpu0.dtb.inst_misses                         0                       # ITB inst misses
system.cpu0.dtb.misses                              0                       # DTB misses
system.cpu0.dtb.perms_faults                        0                       # Number of TLB faults due to permissions restrictions
system.cpu0.dtb.prefetch_faults                     0                       # Number of TLB faults due to prefetch
system.cpu0.dtb.read_accesses                       0                       # DTB read accesses
system.cpu0.dtb.read_hits                           0                       # DTB read hits
system.cpu0.dtb.read_misses                         0                       # DTB read misses
system.cpu0.dtb.stage2_mmu.stage2_tlb.accesses            0                       # DTB accesses
system.cpu0.dtb.stage2_mmu.stage2_tlb.align_faults            0                       # Number of TLB faults due to alignment restrictions
system.cpu0.dtb.stage2_mmu.stage2_tlb.domain_faults            0                       # Number of TLB faults due to domain restrictions
system.cpu0.dtb.stage2_mmu.stage2_tlb.flush_entries            0                       # Number of entries that have been flushed from TLB
system.cpu0.dtb.stage2_mmu.stage2_tlb.flush_tlb            0                       # Number of times complete TLB was flushed
system.cpu0.dtb.stage2_mmu.stage2_tlb.flush_tlb_asid            0                       # Number of times TLB was flushed by ASID
system.cpu0.dtb.stage2_mmu.stage2_tlb.flush_tlb_mva            0                       # Number of times TLB was flushed by MVA
system.cpu0.dtb.stage2_mmu.stage2_tlb.flush_tlb_mva_asid            0                       # Number of times TLB was flushed by MVA & ASID
system.cpu0.dtb.stage2_mmu.stage2_tlb.hits            0                       # DTB hits
system.cpu0.dtb.stage2_mmu.stage2_tlb.inst_accesses            0                       # ITB inst accesses
system.cpu0.dtb.stage2_mmu.stage2_tlb.inst_hits            0                       # ITB inst hits
system.cpu0.dtb.stage2_mmu.stage2_tlb.inst_misses            0                       # ITB inst misses
system.cpu0.dtb.stage2_mmu.stage2_tlb.misses            0                       # DTB misses
system.cpu0.dtb.stage2_mmu.stage2_tlb.perms_faults            0                       # Number of TLB faults due to permissions restrictions
system.cpu0.dtb.stage2_mmu.stage2_tlb.prefetch_faults            0                       # Number of TLB faults due to prefetch
system.cpu0.dtb.stage2_mmu.stage2_tlb.read_accesses            0                       # DTB read accesses
system.cpu0.dtb.stage2_mmu.stage2_tlb.read_hits            0                       # DTB read hits
system.cpu0.dtb.stage2_mmu.stage2_tlb.read_misses            0                       # DTB read misses
system.cpu0.dtb.stage2_mmu.stage2_tlb.walker.walkRequestOrigin_Requested::Data            0                       # Table walker requests started/completed, data/inst
system.cpu0.dtb.stage2_mmu.stage2_tlb.walker.walkRequestOrigin_Requested::Inst            0                       # Table walker requests started/completed, data/inst
system.cpu0.dtb.stage2_mmu.stage2_tlb.walker.walkRequestOrigin_Requested::total            0                       # Table walker requests started/completed, data/inst
system.cpu0.dtb.stage2_mmu.stage2_tlb.walker.walkRequestOrigin_Completed::Data            0                       # Table walker requests started/completed, data/inst
system.cpu0.dtb.stage2_mmu.stage2_tlb.walker.walkRequestOrigin_Completed::Inst            0                       # Table walker requests started/completed, data/inst
system.cpu0.dtb.stage2_mmu.stage2_tlb.walker.walkRequestOrigin_Completed::total            0                       # Table walker requests started/completed, data/inst
system.cpu0.dtb.stage2_mmu.stage2_tlb.walker.walkRequestOrigin::total            0                       # Table walker requests started/completed, data/inst
system.cpu0.dtb.stage2_mmu.stage2_tlb.walker.walks            0                       # Table walker walks requested
system.cpu0.dtb.stage2_mmu.stage2_tlb.write_accesses            0                       # DTB write accesses
system.cpu0.dtb.stage2_mmu.stage2_tlb.write_hits            0                       # DTB write hits
system.cpu0.dtb.stage2_mmu.stage2_tlb.write_misses            0                       # DTB write misses
system.cpu0.dtb.walker.walkRequestOrigin_Requested::Data            0                       # Table walker requests started/completed, data/inst
system.cpu0.dtb.walker.walkRequestOrigin_Requested::Inst            0                       # Table walker requests started/completed, data/inst
system.cpu0.dtb.walker.walkRequestOrigin_Requested::total            0                       # Table walker requests started/completed, data/inst
system.cpu0.dtb.walker.walkRequestOrigin_Completed::Data            0                       # Table walker requests started/completed, data/inst
system.cpu0.dtb.walker.walkRequestOrigin_Completed::Inst            0                       # Table walker requests started/completed, data/inst
system.cpu0.dtb.walker.walkRequestOrigin_Completed::total            0                       # Table walker requests started/completed, data/inst
system.cpu0.dtb.walker.walkRequestOrigin::total            0                       # Table walker requests started/completed, data/inst
system.cpu0.dtb.walker.walks                        0                       # Table walker walks requested
system.cpu0.dtb.write_accesses                      0                       # DTB write accesses
system.cpu0.dtb.write_hits                          0                       # DTB write hits
system.cpu0.dtb.write_misses                        0                       # DTB write misses
system.cpu0.fetch.Branches                     210515                       # Number of branches that fetch encountered
system.cpu0.fetch.CacheLines                   254505                       # Number of cache lines fetched
system.cpu0.fetch.Cycles                       575035                       # Number of cycles fetch has run and was not squashing or blocked
system.cpu0.fetch.IcacheSquashes                  251                       # Number of outstanding Icache misses that were squashed
system.cpu0.fetch.IcacheWaitRetryStallCycles          426                       # Number of stall cycles due to full MSHR
system.cpu0.fetch.Insts                       1033055                       # Number of instructions fetch has processed
system.cpu0.fetch.MiscStallCycles                  49                       # Number of cycles fetch has spent waiting on interrupts, or bad addresses, or out of MSHRs
system.cpu0.fetch.PendingTrapStallCycles           47                       # Number of stall cycles due to pending traps
system.cpu0.fetch.SquashCycles                   8452                       # Number of cycles fetch has spent squashing
system.cpu0.fetch.branchRate                 0.335194                       # Number of branch fetches per cycle
system.cpu0.fetch.icacheStallCycles             12708                       # Number of cycles fetch is stalled on an Icache miss
system.cpu0.fetch.predictedBranches             96429                       # Number of branches that fetch has predicted taken
system.cpu0.fetch.rate                       1.644887                       # Number of inst fetches per cycle
system.cpu0.fetch.rateDist::samples            592491                       # Number of instructions fetched each cycle (Total)
system.cpu0.fetch.rateDist::mean             1.918622                       # Number of instructions fetched each cycle (Total)
system.cpu0.fetch.rateDist::stdev            1.199327                       # Number of instructions fetched each cycle (Total)
system.cpu0.fetch.rateDist::underflows              0      0.00%      0.00% # Number of instructions fetched each cycle (Total)
system.cpu0.fetch.rateDist::0                  121221     20.46%     20.46% # Number of instructions fetched each cycle (Total)
system.cpu0.fetch.rateDist::1                   88521     14.94%     35.40% # Number of instructions fetched each cycle (Total)
system.cpu0.fetch.rateDist::2                  100002     16.88%     52.28% # Number of instructions fetched each cycle (Total)
system.cpu0.fetch.rateDist::3                  282747     47.72%    100.00% # Number of instructions fetched each cycle (Total)
system.cpu0.fetch.rateDist::overflows               0      0.00%    100.00% # Number of instructions fetched each cycle (Total)
system.cpu0.fetch.rateDist::min_value               0                       # Number of instructions fetched each cycle (Total)
system.cpu0.fetch.rateDist::max_value               3                       # Number of instructions fetched each cycle (Total)
system.cpu0.fetch.rateDist::total              592491                       # Number of instructions fetched each cycle (Total)
system.cpu0.idleCycles                          35549                       # Total number of cycles that the CPU has spent unscheduled due to idling
system.cpu0.iew.branchMispredicts                2899                       # Number of branch mispredicts detected at execute
system.cpu0.iew.exec_branches                  188889                       # Number of branches executed
system.cpu0.iew.exec_nop                           38                       # number of nop insts executed
system.cpu0.iew.exec_rate                    1.647505                       # Inst execution rate
system.cpu0.iew.exec_refs                      372368                       # number of memory reference insts executed
system.cpu0.iew.exec_stores                    164172                       # Number of stores executed
system.cpu0.iew.exec_swp                            0                       # number of swp insts executed
system.cpu0.iew.iewBlockCycles                   3431                       # Number of cycles IEW is blocking
system.cpu0.iew.iewBranchMispredictRate      1.534764                       # Percentage of branch mispredicts
system.cpu0.iew.iewBranchPercentage         18.255454                       # Percentage of branches executed
system.cpu0.iew.iewDispLoadInsts               208557                       # Number of dispatched load instructions
system.cpu0.iew.iewDispNonSpecInsts              1148                       # Number of dispatched non-speculative instructions
system.cpu0.iew.iewDispSquashedInsts                0                       # Number of squashed instructions skipped by dispatch
system.cpu0.iew.iewDispStoreInsts              166457                       # Number of dispatched store instructions
system.cpu0.iew.iewDispatchedInsts            1053983                       # Number of instructions dispatched to IQ
system.cpu0.iew.iewExecLoadInsts               208196                       # Number of load instructions executed
system.cpu0.iew.iewExecSquashedInsts             5990                       # Number of squashed instructions skipped in execute
system.cpu0.iew.iewExecutedInsts              1034699                       # Number of executed instructions
system.cpu0.iew.iewIQFullEvents                     3                       # Number of times the IQ has become full, causing a stall
system.cpu0.iew.iewIdleCycles                       0                       # Number of cycles IEW is idle
system.cpu0.iew.iewLSQFullEvents                 3254                       # Number of times the LSQ has become full, causing a stall
system.cpu0.iew.iewSquashCycles                  2909                       # Number of cycles IEW is squashing
system.cpu0.iew.iewUnblockCycles                 3258                       # Number of cycles IEW is unblocking
system.cpu0.iew.lsq.thread0.blockedLoads            0                       # Number of blocked loads due to partial load-store forwarding
system.cpu0.iew.lsq.thread0.cacheBlocked          158                       # Number of times an access to memory failed due to the cache being blocked
system.cpu0.iew.lsq.thread0.forwLoads           17835                       # Number of loads that had data forwarded from stores
system.cpu0.iew.lsq.thread0.ignoredResponses            0                       # Number of memory responses ignored because the instruction is squashed
system.cpu0.iew.lsq.thread0.invAddrLoads            0                       # Number of loads ignored due to an invalid address
system.cpu0.iew.lsq.thread0.invAddrSwpfs            0                       # Number of software prefetches ignored due to an invalid address
system.cpu0.iew.lsq.thread0.memOrderViolation           39                       # Number of memory ordering violations
system.cpu0.iew.lsq.thread0.rescheduledLoads         2118                       # Number of loads that were rescheduled
system.cpu0.iew.lsq.thread0.squashedLoads         9282                       # Number of loads squashed
system.cpu0.iew.lsq.thread0.squashedStores         3146                       # Number of stores squashed
system.cpu0.iew.memOrderViolationEvents            39                       # Number of memory order violations
system.cpu0.iew.predictedNotTakenIncorrect         2887                       # Number of branches that were predicted not taken incorrectly
system.cpu0.iew.predictedTakenIncorrect            12                       # Number of branches that were predicted taken incorrectly
system.cpu0.iew.wb_consumers                   908576                       # num instructions consuming a value
system.cpu0.iew.wb_count                      1028885                       # cumulative count of insts written-back
system.cpu0.iew.wb_fanout                    0.593035                       # average fanout of values written-back
system.cpu0.iew.wb_producers                   538817                       # num instructions producing a value
system.cpu0.iew.wb_rate                      1.638248                       # insts written-back per cycle
system.cpu0.iew.wb_sent                       1029611                       # cumulative count of insts sent to commit
system.cpu0.int_regfile_reads                 1054679                       # number of integer regfile reads
system.cpu0.int_regfile_writes                 527314                       # number of integer regfile writes
system.cpu0.ipc                              1.462593                       # IPC: Instructions Per Cycle
system.cpu0.ipc_total                        1.462593                       # IPC: Total IPC of All Threads
system.cpu0.iq.FU_type_0::No_OpClass                0      0.00%      0.00% # Type of FU issued
system.cpu0.iq.FU_type_0::IntAlu               663396     63.75%     63.75% # Type of FU issued
system.cpu0.iq.FU_type_0::IntMult                3183      0.31%     64.05% # Type of FU issued
system.cpu0.iq.FU_type_0::IntDiv                    0      0.00%     64.05% # Type of FU issued
system.cpu0.iq.FU_type_0::FloatAdd                  0      0.00%     64.05% # Type of FU issued
system.cpu0.iq.FU_type_0::FloatCmp                  0      0.00%     64.05% # Type of FU issued
system.cpu0.iq.FU_type_0::FloatCvt                  0      0.00%     64.05% # Type of FU issued
system.cpu0.iq.FU_type_0::FloatMult                 0      0.00%     64.05% # Type of FU issued
system.cpu0.iq.FU_type_0::FloatMultAcc              0      0.00%     64.05% # Type of FU issued
system.cpu0.iq.FU_type_0::FloatDiv                  0      0.00%     64.05% # Type of FU issued
system.cpu0.iq.FU_type_0::FloatMisc                 0      0.00%     64.05% # Type of FU issued
system.cpu0.iq.FU_type_0::FloatSqrt                 0      0.00%     64.05% # Type of FU issued
system.cpu0.iq.FU_type_0::SimdAdd                   9      0.00%     64.05% # Type of FU issued
system.cpu0.iq.FU_type_0::SimdAddAcc                2      0.00%     64.05% # Type of FU issued
system.cpu0.iq.FU_type_0::SimdAlu                   0      0.00%     64.05% # Type of FU issued
system.cpu0.iq.FU_type_0::SimdCmp                   0      0.00%     64.05% # Type of FU issued
system.cpu0.iq.FU_type_0::SimdCvt                   0      0.00%     64.05% # Type of FU issued
system.cpu0.iq.FU_type_0::SimdMisc                  0      0.00%     64.05% # Type of FU issued
system.cpu0.iq.FU_type_0::SimdMult                  0      0.00%     64.05% # Type of FU issued
system.cpu0.iq.FU_type_0::SimdMultAcc               0      0.00%     64.05% # Type of FU issued
system.cpu0.iq.FU_type_0::SimdShift                 4      0.00%     64.05% # Type of FU issued
system.cpu0.iq.FU_type_0::SimdShiftAcc              0      0.00%     64.05% # Type of FU issued
system.cpu0.iq.FU_type_0::SimdDiv                   0      0.00%     64.05% # Type of FU issued
system.cpu0.iq.FU_type_0::SimdSqrt                  0      0.00%     64.05% # Type of FU issued
system.cpu0.iq.FU_type_0::SimdFloatAdd              0      0.00%     64.05% # Type of FU issued
system.cpu0.iq.FU_type_0::SimdFloatAlu              0      0.00%     64.05% # Type of FU issued
system.cpu0.iq.FU_type_0::SimdFloatCmp              0      0.00%     64.05% # Type of FU issued
system.cpu0.iq.FU_type_0::SimdFloatCvt              0      0.00%     64.05% # Type of FU issued
system.cpu0.iq.FU_type_0::SimdFloatDiv              0      0.00%     64.05% # Type of FU issued
system.cpu0.iq.FU_type_0::SimdFloatMisc             0      0.00%     64.05% # Type of FU issued
system.cpu0.iq.FU_type_0::SimdFloatMult             0      0.00%     64.05% # Type of FU issued
system.cpu0.iq.FU_type_0::SimdFloatMultAcc            0      0.00%     64.05% # Type of FU issued
system.cpu0.iq.FU_type_0::SimdFloatSqrt             0      0.00%     64.05% # Type of FU issued
system.cpu0.iq.FU_type_0::SimdReduceAdd             0      0.00%     64.05% # Type of FU issued
system.cpu0.iq.FU_type_0::SimdReduceAlu             0      0.00%     64.05% # Type of FU issued
system.cpu0.iq.FU_type_0::SimdReduceCmp             0      0.00%     64.05% # Type of FU issued
system.cpu0.iq.FU_type_0::SimdFloatReduceAdd            0      0.00%     64.05% # Type of FU issued
system.cpu0.iq.FU_type_0::SimdFloatReduceCmp            0      0.00%     64.05% # Type of FU issued
system.cpu0.iq.FU_type_0::SimdAes                   0      0.00%     64.05% # Type of FU issued
system.cpu0.iq.FU_type_0::SimdAesMix                0      0.00%     64.05% # Type of FU issued
system.cpu0.iq.FU_type_0::SimdSha1Hash              0      0.00%     64.05% # Type of FU issued
system.cpu0.iq.FU_type_0::SimdSha1Hash2             0      0.00%     64.05% # Type of FU issued
system.cpu0.iq.FU_type_0::SimdSha256Hash            0      0.00%     64.05% # Type of FU issued
system.cpu0.iq.FU_type_0::SimdSha256Hash2            0      0.00%     64.05% # Type of FU issued
system.cpu0.iq.FU_type_0::SimdShaSigma2             0      0.00%     64.05% # Type of FU issued
system.cpu0.iq.FU_type_0::SimdShaSigma3             0      0.00%     64.05% # Type of FU issued
system.cpu0.iq.FU_type_0::SimdPredAlu               0      0.00%     64.05% # Type of FU issued
system.cpu0.iq.FU_type_0::MemRead              209726     20.15%     84.21% # Type of FU issued
system.cpu0.iq.FU_type_0::MemWrite             164373     15.79%    100.00% # Type of FU issued
system.cpu0.iq.FU_type_0::FloatMemRead              0      0.00%    100.00% # Type of FU issued
system.cpu0.iq.FU_type_0::FloatMemWrite             0      0.00%    100.00% # Type of FU issued
system.cpu0.iq.FU_type_0::IprAccess                 0      0.00%    100.00% # Type of FU issued
system.cpu0.iq.FU_type_0::InstPrefetch              0      0.00%    100.00% # Type of FU issued
system.cpu0.iq.FU_type_0::total               1040693                       # Type of FU issued
system.cpu0.iq.fp_alu_accesses                      0                       # Number of floating point alu accesses
system.cpu0.iq.fp_inst_queue_reads                  0                       # Number of floating instruction queue reads
system.cpu0.iq.fp_inst_queue_wakeup_accesses            0                       # Number of floating instruction queue wakeup accesses
system.cpu0.iq.fp_inst_queue_writes                 0                       # Number of floating instruction queue writes
system.cpu0.iq.fu_busy_cnt                     335853                       # FU busy when requested
system.cpu0.iq.fu_busy_rate                  0.322721                       # FU busy rate (busy events/executed inst)
system.cpu0.iq.fu_full::No_OpClass                  0      0.00%      0.00% # attempts to use FU when none available
system.cpu0.iq.fu_full::IntAlu                 177922     52.98%     52.98% # attempts to use FU when none available
system.cpu0.iq.fu_full::IntMult                     0      0.00%     52.98% # attempts to use FU when none available
system.cpu0.iq.fu_full::IntDiv                      0      0.00%     52.98% # attempts to use FU when none available
system.cpu0.iq.fu_full::FloatAdd                    0      0.00%     52.98% # attempts to use FU when none available
system.cpu0.iq.fu_full::FloatCmp                    0      0.00%     52.98% # attempts to use FU when none available
system.cpu0.iq.fu_full::FloatCvt                    0      0.00%     52.98% # attempts to use FU when none available
system.cpu0.iq.fu_full::FloatMult                   0      0.00%     52.98% # attempts to use FU when none available
system.cpu0.iq.fu_full::FloatMultAcc                0      0.00%     52.98% # attempts to use FU when none available
system.cpu0.iq.fu_full::FloatDiv                    0      0.00%     52.98% # attempts to use FU when none available
system.cpu0.iq.fu_full::FloatMisc                   0      0.00%     52.98% # attempts to use FU when none available
system.cpu0.iq.fu_full::FloatSqrt                   0      0.00%     52.98% # attempts to use FU when none available
system.cpu0.iq.fu_full::SimdAdd                     0      0.00%     52.98% # attempts to use FU when none available
system.cpu0.iq.fu_full::SimdAddAcc                  0      0.00%     52.98% # attempts to use FU when none available
system.cpu0.iq.fu_full::SimdAlu                     0      0.00%     52.98% # attempts to use FU when none available
system.cpu0.iq.fu_full::SimdCmp                     0      0.00%     52.98% # attempts to use FU when none available
system.cpu0.iq.fu_full::SimdCvt                     0      0.00%     52.98% # attempts to use FU when none available
system.cpu0.iq.fu_full::SimdMisc                    0      0.00%     52.98% # attempts to use FU when none available
system.cpu0.iq.fu_full::SimdMult                    0      0.00%     52.98% # attempts to use FU when none available
system.cpu0.iq.fu_full::SimdMultAcc                 0      0.00%     52.98% # attempts to use FU when none available
system.cpu0.iq.fu_full::SimdShift                   0      0.00%     52.98% # attempts to use FU when none available
system.cpu0.iq.fu_full::SimdShiftAcc                0      0.00%     52.98% # attempts to use FU when none available
system.cpu0.iq.fu_full::SimdDiv                     0      0.00%     52.98% # attempts to use FU when none available
system.cpu0.iq.fu_full::SimdSqrt                    0      0.00%     52.98% # attempts to use FU when none available
system.cpu0.iq.fu_full::SimdFloatAdd                0      0.00%     52.98% # attempts to use FU when none available
system.cpu0.iq.fu_full::SimdFloatAlu                0      0.00%     52.98% # attempts to use FU when none available
system.cpu0.iq.fu_full::SimdFloatCmp                0      0.00%     52.98% # attempts to use FU when none available
system.cpu0.iq.fu_full::SimdFloatCvt                0      0.00%     52.98% # attempts to use FU when none available
system.cpu0.iq.fu_full::SimdFloatDiv                0      0.00%     52.98% # attempts to use FU when none available
system.cpu0.iq.fu_full::SimdFloatMisc               0      0.00%     52.98% # attempts to use FU when none available
system.cpu0.iq.fu_full::SimdFloatMult               0      0.00%     52.98% # attempts to use FU when none available
system.cpu0.iq.fu_full::SimdFloatMultAcc            0      0.00%     52.98% # attempts to use FU when none available
system.cpu0.iq.fu_full::SimdFloatSqrt               0      0.00%     52.98% # attempts to use FU when none available
system.cpu0.iq.fu_full::SimdReduceAdd               0      0.00%     52.98% # attempts to use FU when none available
system.cpu0.iq.fu_full::SimdReduceAlu               0      0.00%     52.98% # attempts to use FU when none available
system.cpu0.iq.fu_full::SimdReduceCmp               0      0.00%     52.98% # attempts to use FU when none available
system.cpu0.iq.fu_full::SimdFloatReduceAdd            0      0.00%     52.98% # attempts to use FU when none available
system.cpu0.iq.fu_full::SimdFloatReduceCmp            0      0.00%     52.98% # attempts to use FU when none available
system.cpu0.iq.fu_full::SimdAes                     0      0.00%     52.98% # attempts to use FU when none available
system.cpu0.iq.fu_full::SimdAesMix                  0      0.00%     52.98% # attempts to use FU when none available
system.cpu0.iq.fu_full::SimdSha1Hash                0      0.00%     52.98% # attempts to use FU when none available
system.cpu0.iq.fu_full::SimdSha1Hash2               0      0.00%     52.98% # attempts to use FU when none available
system.cpu0.iq.fu_full::SimdSha256Hash              0      0.00%     52.98% # attempts to use FU when none available
system.cpu0.iq.fu_full::SimdSha256Hash2             0      0.00%     52.98% # attempts to use FU when none available
system.cpu0.iq.fu_full::SimdShaSigma2               0      0.00%     52.98% # attempts to use FU when none available
system.cpu0.iq.fu_full::SimdShaSigma3               0      0.00%     52.98% # attempts to use FU when none available
system.cpu0.iq.fu_full::SimdPredAlu                 0      0.00%     52.98% # attempts to use FU when none available
system.cpu0.iq.fu_full::MemRead                 90075     26.82%     79.80% # attempts to use FU when none available
system.cpu0.iq.fu_full::MemWrite                67856     20.20%    100.00% # attempts to use FU when none available
system.cpu0.iq.fu_full::FloatMemRead                0      0.00%    100.00% # attempts to use FU when none available
system.cpu0.iq.fu_full::FloatMemWrite               0      0.00%    100.00% # attempts to use FU when none available
system.cpu0.iq.fu_full::IprAccess                   0      0.00%    100.00% # attempts to use FU when none available
system.cpu0.iq.fu_full::InstPrefetch                0      0.00%    100.00% # attempts to use FU when none available
system.cpu0.iq.int_alu_accesses               1376546                       # Number of integer alu accesses
system.cpu0.iq.int_inst_queue_reads           3013923                       # Number of integer instruction queue reads
system.cpu0.iq.int_inst_queue_wakeup_accesses      1028885                       # Number of integer instruction queue wakeup accesses
system.cpu0.iq.int_inst_queue_writes          1095457                       # Number of integer instruction queue writes
system.cpu0.iq.iqInstsAdded                   1051688                       # Number of instructions added to the IQ (excludes non-spec)
system.cpu0.iq.iqInstsIssued                  1040693                       # Number of instructions issued
system.cpu0.iq.iqNonSpecInstsAdded               2257                       # Number of non-speculative instructions added to the IQ
system.cpu0.iq.iqSquashedInstsExamined          41478                       # Number of squashed instructions iterated over during squash; mainly for profiling
system.cpu0.iq.iqSquashedInstsIssued             4197                       # Number of squashed instructions issued
system.cpu0.iq.iqSquashedNonSpecRemoved            31                       # Number of squashed non-spec instructions that were removed
system.cpu0.iq.iqSquashedOperandsExamined        94237                       # Number of squashed operands that are examined and possibly removed from graph
system.cpu0.iq.issued_per_cycle::samples       592491                       # Number of insts issued each cycle
system.cpu0.iq.issued_per_cycle::mean        1.756471                       # Number of insts issued each cycle
system.cpu0.iq.issued_per_cycle::stdev       1.176351                       # Number of insts issued each cycle
system.cpu0.iq.issued_per_cycle::underflows            0      0.00%      0.00% # Number of insts issued each cycle
system.cpu0.iq.issued_per_cycle::0             127774     21.57%     21.57% # Number of insts issued each cycle
system.cpu0.iq.issued_per_cycle::1              88986     15.02%     36.58% # Number of insts issued each cycle
system.cpu0.iq.issued_per_cycle::2             201783     34.06%     70.64% # Number of insts issued each cycle
system.cpu0.iq.issued_per_cycle::3             148704     25.10%     95.74% # Number of insts issued each cycle
system.cpu0.iq.issued_per_cycle::4              24191      4.08%     99.82% # Number of insts issued each cycle
system.cpu0.iq.issued_per_cycle::5               1053      0.18%    100.00% # Number of insts issued each cycle
system.cpu0.iq.issued_per_cycle::6                  0      0.00%    100.00% # Number of insts issued each cycle
system.cpu0.iq.issued_per_cycle::7                  0      0.00%    100.00% # Number of insts issued each cycle
system.cpu0.iq.issued_per_cycle::8                  0      0.00%    100.00% # Number of insts issued each cycle
system.cpu0.iq.issued_per_cycle::overflows            0      0.00%    100.00% # Number of insts issued each cycle
system.cpu0.iq.issued_per_cycle::min_value            0                       # Number of insts issued each cycle
system.cpu0.iq.issued_per_cycle::max_value            5                       # Number of insts issued each cycle
system.cpu0.iq.issued_per_cycle::total         592491                       # Number of insts issued each cycle
system.cpu0.iq.rate                          1.657049                       # Inst issue rate
system.cpu0.iq.vec_alu_accesses                     0                       # Number of vector alu accesses
system.cpu0.iq.vec_inst_queue_reads                 0                       # Number of vector instruction queue reads
system.cpu0.iq.vec_inst_queue_wakeup_accesses            0                       # Number of vector instruction queue wakeup accesses
system.cpu0.iq.vec_inst_queue_writes                0                       # Number of vector instruction queue writes
system.cpu0.itb.accesses                            0                       # DTB accesses
system.cpu0.itb.align_faults                        0                       # Number of TLB faults due to alignment restrictions
system.cpu0.itb.domain_faults                       0                       # Number of TLB faults due to domain restrictions
system.cpu0.itb.flush_entries                       0                       # Number of entries that have been flushed from TLB
system.cpu0.itb.flush_tlb                           0                       # Number of times complete TLB was flushed
system.cpu0.itb.flush_tlb_asid                      0                       # Number of times TLB was flushed by ASID
system.cpu0.itb.flush_tlb_mva                       0                       # Number of times TLB was flushed by MVA
system.cpu0.itb.flush_tlb_mva_asid                  0                       # Number of times TLB was flushed by MVA & ASID
system.cpu0.itb.hits                                0                       # DTB hits
system.cpu0.itb.inst_accesses                       0                       # ITB inst accesses
system.cpu0.itb.inst_hits                           0                       # ITB inst hits
system.cpu0.itb.inst_misses                         0                       # ITB inst misses
system.cpu0.itb.misses                              0                       # DTB misses
system.cpu0.itb.perms_faults                        0                       # Number of TLB faults due to permissions restrictions
system.cpu0.itb.prefetch_faults                     0                       # Number of TLB faults due to prefetch
system.cpu0.itb.read_accesses                       0                       # DTB read accesses
system.cpu0.itb.read_hits                           0                       # DTB read hits
system.cpu0.itb.read_misses                         0                       # DTB read misses
system.cpu0.itb.stage2_mmu.stage2_tlb.accesses            0                       # DTB accesses
system.cpu0.itb.stage2_mmu.stage2_tlb.align_faults            0                       # Number of TLB faults due to alignment restrictions
system.cpu0.itb.stage2_mmu.stage2_tlb.domain_faults            0                       # Number of TLB faults due to domain restrictions
system.cpu0.itb.stage2_mmu.stage2_tlb.flush_entries            0                       # Number of entries that have been flushed from TLB
system.cpu0.itb.stage2_mmu.stage2_tlb.flush_tlb            0                       # Number of times complete TLB was flushed
system.cpu0.itb.stage2_mmu.stage2_tlb.flush_tlb_asid            0                       # Number of times TLB was flushed by ASID
system.cpu0.itb.stage2_mmu.stage2_tlb.flush_tlb_mva            0                       # Number of times TLB was flushed by MVA
system.cpu0.itb.stage2_mmu.stage2_tlb.flush_tlb_mva_asid            0                       # Number of times TLB was flushed by MVA & ASID
system.cpu0.itb.stage2_mmu.stage2_tlb.hits            0                       # DTB hits
system.cpu0.itb.stage2_mmu.stage2_tlb.inst_accesses            0                       # ITB inst accesses
system.cpu0.itb.stage2_mmu.stage2_tlb.inst_hits            0                       # ITB inst hits
system.cpu0.itb.stage2_mmu.stage2_tlb.inst_misses            0                       # ITB inst misses
system.cpu0.itb.stage2_mmu.stage2_tlb.misses            0                       # DTB misses
system.cpu0.itb.stage2_mmu.stage2_tlb.perms_faults            0                       # Number of TLB faults due to permissions restrictions
system.cpu0.itb.stage2_mmu.stage2_tlb.prefetch_faults            0                       # Number of TLB faults due to prefetch
system.cpu0.itb.stage2_mmu.stage2_tlb.read_accesses            0                       # DTB read accesses
system.cpu0.itb.stage2_mmu.stage2_tlb.read_hits            0                       # DTB read hits
system.cpu0.itb.stage2_mmu.stage2_tlb.read_misses            0                       # DTB read misses
system.cpu0.itb.stage2_mmu.stage2_tlb.walker.walkRequestOrigin_Requested::Data            0                       # Table walker requests started/completed, data/inst
system.cpu0.itb.stage2_mmu.stage2_tlb.walker.walkRequestOrigin_Requested::Inst            0                       # Table walker requests started/completed, data/inst
system.cpu0.itb.stage2_mmu.stage2_tlb.walker.walkRequestOrigin_Requested::total            0                       # Table walker requests started/completed, data/inst
system.cpu0.itb.stage2_mmu.stage2_tlb.walker.walkRequestOrigin_Completed::Data            0                       # Table walker requests started/completed, data/inst
system.cpu0.itb.stage2_mmu.stage2_tlb.walker.walkRequestOrigin_Completed::Inst            0                       # Table walker requests started/completed, data/inst
system.cpu0.itb.stage2_mmu.stage2_tlb.walker.walkRequestOrigin_Completed::total            0                       # Table walker requests started/completed, data/inst
system.cpu0.itb.stage2_mmu.stage2_tlb.walker.walkRequestOrigin::total            0                       # Table walker requests started/completed, data/inst
system.cpu0.itb.stage2_mmu.stage2_tlb.walker.walks            0                       # Table walker walks requested
system.cpu0.itb.stage2_mmu.stage2_tlb.write_accesses            0                       # DTB write accesses
system.cpu0.itb.stage2_mmu.stage2_tlb.write_hits            0                       # DTB write hits
system.cpu0.itb.stage2_mmu.stage2_tlb.write_misses            0                       # DTB write misses
system.cpu0.itb.walker.walkRequestOrigin_Requested::Data            0                       # Table walker requests started/completed, data/inst
system.cpu0.itb.walker.walkRequestOrigin_Requested::Inst            0                       # Table walker requests started/completed, data/inst
system.cpu0.itb.walker.walkRequestOrigin_Requested::total            0                       # Table walker requests started/completed, data/inst
system.cpu0.itb.walker.walkRequestOrigin_Completed::Data            0                       # Table walker requests started/completed, data/inst
system.cpu0.itb.walker.walkRequestOrigin_Completed::Inst            0                       # Table walker requests started/completed, data/inst
system.cpu0.itb.walker.walkRequestOrigin_Completed::total            0                       # Table walker requests started/completed, data/inst
system.cpu0.itb.walker.walkRequestOrigin::total            0                       # Table walker requests started/completed, data/inst
system.cpu0.itb.walker.walks                        0                       # Table walker walks requested
system.cpu0.itb.write_accesses                      0                       # DTB write accesses
system.cpu0.itb.write_hits                          0                       # DTB write hits
system.cpu0.itb.write_misses                        0                       # DTB write misses
system.cpu0.memDep0.conflictingLoads            15126                       # Number of conflicting loads.
system.cpu0.memDep0.conflictingStores           10626                       # Number of conflicting stores.
system.cpu0.memDep0.insertedLoads              208557                       # Number of loads inserted to the mem dependence unit.
system.cpu0.memDep0.insertedStores             166457                       # Number of stores inserted to the mem dependence unit.
system.cpu0.misc_regfile_reads                 395636                       # number of misc regfile reads
system.cpu0.misc_regfile_writes                  4405                       # number of misc regfile writes
system.cpu0.numCycles                          628040                       # number of cpu cycles simulated
system.cpu0.numWorkItemsCompleted                   0                       # number of work items this cpu completed
system.cpu0.numWorkItemsStarted                     0                       # number of work items this cpu started
system.cpu0.rename.BlockCycles                  13586                       # Number of cycles rename is blocking
system.cpu0.rename.CommittedMaps              1125170                       # Number of HB maps that are committed
system.cpu0.rename.IQFullEvents                    70                       # Number of times rename has blocked due to IQ full
system.cpu0.rename.IdleCycles                   79036                       # Number of cycles rename is idle
system.cpu0.rename.ROBFullEvents                10057                       # Number of times rename has blocked due to ROB full
system.cpu0.rename.RenameLookups              4668960                       # Number of register rename lookups that rename has made
system.cpu0.rename.RenamedInsts               1058477                       # Number of instructions processed by rename
system.cpu0.rename.RenamedOperands            1182814                       # Number of destination operands rename has renamed
system.cpu0.rename.RunCycles                   384021                       # Number of cycles rename is running
system.cpu0.rename.SQFullEvents                 45008                       # Number of times rename has blocked due to SQ full
system.cpu0.rename.SquashCycles                  2909                       # Number of cycles rename is squashing
system.cpu0.rename.SquashedInsts                 5980                       # Number of squashed instructions processed by rename
system.cpu0.rename.UnblockCycles                74368                       # Number of cycles rename is unblocking
system.cpu0.rename.UndoneMaps                   57600                       # Number of HB maps that are undone due to squashing
system.cpu0.rename.int_rename_lookups         1100951                       # Number of integer rename lookups
system.cpu0.rename.serializeStallCycles         38571                       # count of cycles rename stalled for serializing inst
system.cpu0.rename.serializingInsts              1160                       # count of serializing insts renamed
system.cpu0.rename.skidInsts                    67549                       # count of insts added to the skid buffer
system.cpu0.rename.tempSerializingInsts          1154                       # count of temporary serializing insts renamed
system.cpu0.rename.vec_rename_lookups            1246                       # Number of vector rename lookups
system.cpu0.rob.rob_reads                     1610322                       # The number of ROB reads
system.cpu0.rob.rob_writes                    2103869                       # The number of ROB writes
system.cpu0.timesIdled                            310                       # Number of times that the entire CPU went into an idle state and unscheduled itself
system.cpu0.vec_regfile_reads                    1174                       # number of vector regfile reads
system.cpu0.vec_regfile_writes                   1138                       # number of vector regfile writes
system.cpu0.workload.numSyscalls                   23                       # Number of system calls
system.cpu1.branchPred.BTBCorrect                   0                       # Number of correct BTB predictions (this stat may not work properly.
system.cpu1.branchPred.BTBHitPct            87.007242                       # BTB Hit Percentage
system.cpu1.branchPred.BTBHits                  66678                       # Number of BTB hits
system.cpu1.branchPred.BTBLookups               76635                       # Number of BTB lookups
system.cpu1.branchPred.RASInCorrect                60                       # Number of incorrect RAS predictions.
system.cpu1.branchPred.condIncorrect             3452                       # Number of conditional branches incorrect
system.cpu1.branchPred.condPredicted            96635                       # Number of conditional branches predicted
system.cpu1.branchPred.indirectHits              6479                       # Number of indirect target hits.
system.cpu1.branchPred.indirectLookups           6972                       # Number of indirect predictor lookups.
system.cpu1.branchPred.indirectMisses             493                       # Number of indirect misses.
system.cpu1.branchPred.lookups                 155426                       # Number of BP lookups
system.cpu1.branchPred.usedRAS                  25449                       # Number of times the RAS was used to get a target.
system.cpu1.branchPredindirectMispredicted          975                       # Number of mispredicted indirect branches.
system.cpu1.cc_regfile_reads                  3657504                       # number of cc regfile reads
system.cpu1.cc_regfile_writes                  538834                       # number of cc regfile writes
system.cpu1.commit.amos                             0                       # Number of atomic instructions committed
system.cpu1.commit.branchMispredicts             3158                       # The number of times a branch was mispredicted
system.cpu1.commit.branches                    144519                       # Number of branches committed
system.cpu1.commit.bw_lim_events                22889                       # number cycles where commit BW limit reached
system.cpu1.commit.commitNonSpecStalls             50                       # The number of times commit has been forced to stall to communicate backwards
system.cpu1.commit.commitSquashedInsts          45132                       # The number of squashed insts skipped by commit
system.cpu1.commit.committedInsts             1000002                       # Number of instructions committed
system.cpu1.commit.committedOps               1067401                       # Number of ops (including micro ops) committed
system.cpu1.commit.committed_per_cycle::samples       577188                       # Number of insts commited each cycle
system.cpu1.commit.committed_per_cycle::mean     1.849313                       # Number of insts commited each cycle
system.cpu1.commit.committed_per_cycle::stdev     1.951984                       # Number of insts commited each cycle
system.cpu1.commit.committed_per_cycle::underflows            0      0.00%      0.00% # Number of insts commited each cycle
system.cpu1.commit.committed_per_cycle::0       125676     21.77%     21.77% # Number of insts commited each cycle
system.cpu1.commit.committed_per_cycle::1       215830     37.39%     59.17% # Number of insts commited each cycle
system.cpu1.commit.committed_per_cycle::2        99901     17.31%     76.48% # Number of insts commited each cycle
system.cpu1.commit.committed_per_cycle::3        38263      6.63%     83.10% # Number of insts commited each cycle
system.cpu1.commit.committed_per_cycle::4        40861      7.08%     90.18% # Number of insts commited each cycle
system.cpu1.commit.committed_per_cycle::5        18725      3.24%     93.43% # Number of insts commited each cycle
system.cpu1.commit.committed_per_cycle::6         8502      1.47%     94.90% # Number of insts commited each cycle
system.cpu1.commit.committed_per_cycle::7         6541      1.13%     96.03% # Number of insts commited each cycle
system.cpu1.commit.committed_per_cycle::8        22889      3.97%    100.00% # Number of insts commited each cycle
system.cpu1.commit.committed_per_cycle::overflows            0      0.00%    100.00% # Number of insts commited each cycle
system.cpu1.commit.committed_per_cycle::min_value            0                       # Number of insts commited each cycle
system.cpu1.commit.committed_per_cycle::max_value            8                       # Number of insts commited each cycle
system.cpu1.commit.committed_per_cycle::total       577188                       # Number of insts commited each cycle
system.cpu1.commit.fp_insts                         0                       # Number of committed floating point instructions.
system.cpu1.commit.function_calls               28447                       # Number of function calls committed.
system.cpu1.commit.int_insts                   988218                       # Number of committed integer instructions.
system.cpu1.commit.loads                       121110                       # Number of loads committed
system.cpu1.commit.membars                         20                       # Number of memory barriers committed
system.cpu1.commit.op_class_0::No_OpClass            0      0.00%      0.00% # Class of committed instruction
system.cpu1.commit.op_class_0::IntAlu          859673     80.54%     80.54% # Class of committed instruction
system.cpu1.commit.op_class_0::IntMult          12478      1.17%     81.71% # Class of committed instruction
system.cpu1.commit.op_class_0::IntDiv               0      0.00%     81.71% # Class of committed instruction
system.cpu1.commit.op_class_0::FloatAdd             0      0.00%     81.71% # Class of committed instruction
system.cpu1.commit.op_class_0::FloatCmp             0      0.00%     81.71% # Class of committed instruction
system.cpu1.commit.op_class_0::FloatCvt             0      0.00%     81.71% # Class of committed instruction
system.cpu1.commit.op_class_0::FloatMult            0      0.00%     81.71% # Class of committed instruction
system.cpu1.commit.op_class_0::FloatMultAcc            0      0.00%     81.71% # Class of committed instruction
system.cpu1.commit.op_class_0::FloatDiv             0      0.00%     81.71% # Class of committed instruction
system.cpu1.commit.op_class_0::FloatMisc            0      0.00%     81.71% # Class of committed instruction
system.cpu1.commit.op_class_0::FloatSqrt            0      0.00%     81.71% # Class of committed instruction
system.cpu1.commit.op_class_0::SimdAdd              0      0.00%     81.71% # Class of committed instruction
system.cpu1.commit.op_class_0::SimdAddAcc            0      0.00%     81.71% # Class of committed instruction
system.cpu1.commit.op_class_0::SimdAlu              0      0.00%     81.71% # Class of committed instruction
system.cpu1.commit.op_class_0::SimdCmp              0      0.00%     81.71% # Class of committed instruction
system.cpu1.commit.op_class_0::SimdCvt              0      0.00%     81.71% # Class of committed instruction
system.cpu1.commit.op_class_0::SimdMisc             0      0.00%     81.71% # Class of committed instruction
system.cpu1.commit.op_class_0::SimdMult             0      0.00%     81.71% # Class of committed instruction
system.cpu1.commit.op_class_0::SimdMultAcc            0      0.00%     81.71% # Class of committed instruction
system.cpu1.commit.op_class_0::SimdShift            0      0.00%     81.71% # Class of committed instruction
system.cpu1.commit.op_class_0::SimdShiftAcc            0      0.00%     81.71% # Class of committed instruction
system.cpu1.commit.op_class_0::SimdDiv              0      0.00%     81.71% # Class of committed instruction
system.cpu1.commit.op_class_0::SimdSqrt             0      0.00%     81.71% # Class of committed instruction
system.cpu1.commit.op_class_0::SimdFloatAdd            0      0.00%     81.71% # Class of committed instruction
system.cpu1.commit.op_class_0::SimdFloatAlu            0      0.00%     81.71% # Class of committed instruction
system.cpu1.commit.op_class_0::SimdFloatCmp            0      0.00%     81.71% # Class of committed instruction
system.cpu1.commit.op_class_0::SimdFloatCvt            0      0.00%     81.71% # Class of committed instruction
system.cpu1.commit.op_class_0::SimdFloatDiv            0      0.00%     81.71% # Class of committed instruction
system.cpu1.commit.op_class_0::SimdFloatMisc            4      0.00%     81.71% # Class of committed instruction
system.cpu1.commit.op_class_0::SimdFloatMult            0      0.00%     81.71% # Class of committed instruction
system.cpu1.commit.op_class_0::SimdFloatMultAcc            0      0.00%     81.71% # Class of committed instruction
system.cpu1.commit.op_class_0::SimdFloatSqrt            0      0.00%     81.71% # Class of committed instruction
system.cpu1.commit.op_class_0::SimdReduceAdd            0      0.00%     81.71% # Class of committed instruction
system.cpu1.commit.op_class_0::SimdReduceAlu            0      0.00%     81.71% # Class of committed instruction
system.cpu1.commit.op_class_0::SimdReduceCmp            0      0.00%     81.71% # Class of committed instruction
system.cpu1.commit.op_class_0::SimdFloatReduceAdd            0      0.00%     81.71% # Class of committed instruction
system.cpu1.commit.op_class_0::SimdFloatReduceCmp            0      0.00%     81.71% # Class of committed instruction
system.cpu1.commit.op_class_0::SimdAes              0      0.00%     81.71% # Class of committed instruction
system.cpu1.commit.op_class_0::SimdAesMix            0      0.00%     81.71% # Class of committed instruction
system.cpu1.commit.op_class_0::SimdSha1Hash            0      0.00%     81.71% # Class of committed instruction
system.cpu1.commit.op_class_0::SimdSha1Hash2            0      0.00%     81.71% # Class of committed instruction
system.cpu1.commit.op_class_0::SimdSha256Hash            0      0.00%     81.71% # Class of committed instruction
system.cpu1.commit.op_class_0::SimdSha256Hash2            0      0.00%     81.71% # Class of committed instruction
system.cpu1.commit.op_class_0::SimdShaSigma2            0      0.00%     81.71% # Class of committed instruction
system.cpu1.commit.op_class_0::SimdShaSigma3            0      0.00%     81.71% # Class of committed instruction
system.cpu1.commit.op_class_0::SimdPredAlu            0      0.00%     81.71% # Class of committed instruction
system.cpu1.commit.op_class_0::MemRead         121110     11.35%     93.05% # Class of committed instruction
system.cpu1.commit.op_class_0::MemWrite         74136      6.95%    100.00% # Class of committed instruction
system.cpu1.commit.op_class_0::FloatMemRead            0      0.00%    100.00% # Class of committed instruction
system.cpu1.commit.op_class_0::FloatMemWrite            0      0.00%    100.00% # Class of committed instruction
system.cpu1.commit.op_class_0::IprAccess            0      0.00%    100.00% # Class of committed instruction
system.cpu1.commit.op_class_0::InstPrefetch            0      0.00%    100.00% # Class of committed instruction
system.cpu1.commit.op_class_0::total          1067401                       # Class of committed instruction
system.cpu1.commit.refs                        195246                       # Number of memory references committed
system.cpu1.commit.swp_count                        0                       # Number of s/w prefetches committed
system.cpu1.commit.vec_insts                        0                       # Number of committed Vector instructions.
system.cpu1.committedInsts                    1000002                       # Number of Instructions Simulated
system.cpu1.committedOps                      1067401                       # Number of Ops (including micro ops) Simulated
system.cpu1.cpi                              0.628039                       # CPI: Cycles Per Instruction
system.cpu1.cpi_total                        0.628039                       # CPI: Total CPI of All Threads
system.cpu1.decode.BlockedCycles                33088                       # Number of cycles decode is blocked
system.cpu1.decode.BranchMispred                  314                       # Number of times decode detected a branch misprediction
system.cpu1.decode.BranchResolved               68292                       # Number of times decode resolved a branch
system.cpu1.decode.DecodedInsts               1136890                       # Number of instructions handled by decode
system.cpu1.decode.IdleCycles                   35234                       # Number of cycles decode is idle
system.cpu1.decode.RunCycles                   492024                       # Number of cycles decode is running
system.cpu1.decode.SquashCycles                  3210                       # Number of cycles decode is squashing
system.cpu1.decode.SquashedInsts                13092                       # Number of squashed instructions handled by decode
system.cpu1.decode.UnblockCycles                20857                       # Number of cycles decode is unblocking
system.cpu1.dtb.accesses                            0                       # DTB accesses
system.cpu1.dtb.align_faults                        0                       # Number of TLB faults due to alignment restrictions
system.cpu1.dtb.domain_faults                       0                       # Number of TLB faults due to domain restrictions
system.cpu1.dtb.flush_entries                       0                       # Number of entries that have been flushed from TLB
system.cpu1.dtb.flush_tlb                           0                       # Number of times complete TLB was flushed
system.cpu1.dtb.flush_tlb_asid                      0                       # Number of times TLB was flushed by ASID
system.cpu1.dtb.flush_tlb_mva                       0                       # Number of times TLB was flushed by MVA
system.cpu1.dtb.flush_tlb_mva_asid                  0                       # Number of times TLB was flushed by MVA & ASID
system.cpu1.dtb.hits                                0                       # DTB hits
system.cpu1.dtb.inst_accesses                       0                       # ITB inst accesses
system.cpu1.dtb.inst_hits                           0                       # ITB inst hits
system.cpu1.dtb.inst_misses                         0                       # ITB inst misses
system.cpu1.dtb.misses                              0                       # DTB misses
system.cpu1.dtb.perms_faults                        0                       # Number of TLB faults due to permissions restrictions
system.cpu1.dtb.prefetch_faults                     0                       # Number of TLB faults due to prefetch
system.cpu1.dtb.read_accesses                       0                       # DTB read accesses
system.cpu1.dtb.read_hits                           0                       # DTB read hits
system.cpu1.dtb.read_misses                         0                       # DTB read misses
system.cpu1.dtb.stage2_mmu.stage2_tlb.accesses            0                       # DTB accesses
system.cpu1.dtb.stage2_mmu.stage2_tlb.align_faults            0                       # Number of TLB faults due to alignment restrictions
system.cpu1.dtb.stage2_mmu.stage2_tlb.domain_faults            0                       # Number of TLB faults due to domain restrictions
system.cpu1.dtb.stage2_mmu.stage2_tlb.flush_entries            0                       # Number of entries that have been flushed from TLB
system.cpu1.dtb.stage2_mmu.stage2_tlb.flush_tlb            0                       # Number of times complete TLB was flushed
system.cpu1.dtb.stage2_mmu.stage2_tlb.flush_tlb_asid            0                       # Number of times TLB was flushed by ASID
system.cpu1.dtb.stage2_mmu.stage2_tlb.flush_tlb_mva            0                       # Number of times TLB was flushed by MVA
system.cpu1.dtb.stage2_mmu.stage2_tlb.flush_tlb_mva_asid            0                       # Number of times TLB was flushed by MVA & ASID
system.cpu1.dtb.stage2_mmu.stage2_tlb.hits            0                       # DTB hits
system.cpu1.dtb.stage2_mmu.stage2_tlb.inst_accesses            0                       # ITB inst accesses
system.cpu1.dtb.stage2_mmu.stage2_tlb.inst_hits            0                       # ITB inst hits
system.cpu1.dtb.stage2_mmu.stage2_tlb.inst_misses            0                       # ITB inst misses
system.cpu1.dtb.stage2_mmu.stage2_tlb.misses            0                       # DTB misses
system.cpu1.dtb.stage2_mmu.stage2_tlb.perms_faults            0                       # Number of TLB faults due to permissions restrictions
system.cpu1.dtb.stage2_mmu.stage2_tlb.prefetch_faults            0                       # Number of TLB faults due to prefetch
system.cpu1.dtb.stage2_mmu.stage2_tlb.read_accesses            0                       # DTB read accesses
system.cpu1.dtb.stage2_mmu.stage2_tlb.read_hits            0                       # DTB read hits
system.cpu1.dtb.stage2_mmu.stage2_tlb.read_misses            0                       # DTB read misses
system.cpu1.dtb.stage2_mmu.stage2_tlb.walker.walkRequestOrigin_Requested::Data            0                       # Table walker requests started/completed, data/inst
system.cpu1.dtb.stage2_mmu.stage2_tlb.walker.walkRequestOrigin_Requested::Inst            0                       # Table walker requests started/completed, data/inst
system.cpu1.dtb.stage2_mmu.stage2_tlb.walker.walkRequestOrigin_Requested::total            0                       # Table walker requests started/completed, data/inst
system.cpu1.dtb.stage2_mmu.stage2_tlb.walker.walkRequestOrigin_Completed::Data            0                       # Table walker requests started/completed, data/inst
system.cpu1.dtb.stage2_mmu.stage2_tlb.walker.walkRequestOrigin_Completed::Inst            0                       # Table walker requests started/completed, data/inst
system.cpu1.dtb.stage2_mmu.stage2_tlb.walker.walkRequestOrigin_Completed::total            0                       # Table walker requests started/completed, data/inst
system.cpu1.dtb.stage2_mmu.stage2_tlb.walker.walkRequestOrigin::total            0                       # Table walker requests started/completed, data/inst
system.cpu1.dtb.stage2_mmu.stage2_tlb.walker.walks            0                       # Table walker walks requested
system.cpu1.dtb.stage2_mmu.stage2_tlb.write_accesses            0                       # DTB write accesses
system.cpu1.dtb.stage2_mmu.stage2_tlb.write_hits            0                       # DTB write hits
system.cpu1.dtb.stage2_mmu.stage2_tlb.write_misses            0                       # DTB write misses
system.cpu1.dtb.walker.walkRequestOrigin_Requested::Data            0                       # Table walker requests started/completed, data/inst
system.cpu1.dtb.walker.walkRequestOrigin_Requested::Inst            0                       # Table walker requests started/completed, data/inst
system.cpu1.dtb.walker.walkRequestOrigin_Requested::total            0                       # Table walker requests started/completed, data/inst
system.cpu1.dtb.walker.walkRequestOrigin_Completed::Data            0                       # Table walker requests started/completed, data/inst
system.cpu1.dtb.walker.walkRequestOrigin_Completed::Inst            0                       # Table walker requests started/completed, data/inst
system.cpu1.dtb.walker.walkRequestOrigin_Completed::total            0                       # Table walker requests started/completed, data/inst
system.cpu1.dtb.walker.walkRequestOrigin::total            0                       # Table walker requests started/completed, data/inst
system.cpu1.dtb.walker.walks                        0                       # Table walker walks requested
system.cpu1.dtb.write_accesses                      0                       # DTB write accesses
system.cpu1.dtb.write_hits                          0                       # DTB write hits
system.cpu1.dtb.write_misses                        0                       # DTB write misses
system.cpu1.fetch.Branches                     155426                       # Number of branches that fetch encountered
system.cpu1.fetch.CacheLines                   345668                       # Number of cache lines fetched
system.cpu1.fetch.Cycles                       565769                       # Number of cycles fetch has run and was not squashing or blocked
system.cpu1.fetch.IcacheSquashes                  348                       # Number of outstanding Icache misses that were squashed
system.cpu1.fetch.IcacheWaitRetryStallCycles          504                       # Number of stall cycles due to full MSHR
system.cpu1.fetch.Insts                       1088048                       # Number of instructions fetch has processed
system.cpu1.fetch.MiscStallCycles                 687                       # Number of cycles fetch has spent waiting on interrupts, or bad addresses, or out of MSHRs
system.cpu1.fetch.PendingTrapStallCycles          131                       # Number of stall cycles due to pending traps
system.cpu1.fetch.SquashCycles                   7020                       # Number of cycles fetch has spent squashing
system.cpu1.fetch.branchRate                 0.247478                       # Number of branch fetches per cycle
system.cpu1.fetch.icacheStallCycles             13812                       # Number of cycles fetch is stalled on an Icache miss
system.cpu1.fetch.predictedBranches             98606                       # Number of branches that fetch has predicted taken
system.cpu1.fetch.rate                       1.732450                       # Number of inst fetches per cycle
system.cpu1.fetch.rateDist::samples            584413                       # Number of instructions fetched each cycle (Total)
system.cpu1.fetch.rateDist::mean             1.983123                       # Number of instructions fetched each cycle (Total)
system.cpu1.fetch.rateDist::stdev            1.032548                       # Number of instructions fetched each cycle (Total)
system.cpu1.fetch.rateDist::underflows              0      0.00%      0.00% # Number of instructions fetched each cycle (Total)
system.cpu1.fetch.rateDist::0                   22748      3.89%      3.89% # Number of instructions fetched each cycle (Total)
[...]
system.mem_ctrls.wrQLenPdf::39                      0                       # What write queue length does an incoming req see
system.mem_ctrls.wrQLenPdf::40                      0                       # What write queue length does an incoming req see
system.mem_ctrls.wrQLenPdf::41                      0                       # What write queue length does an incoming req see
system.mem_ctrls.wrQLenPdf::42                      0                       # What write queue length does an incoming req see
system.mem_ctrls.wrQLenPdf::43                      0                       # What write queue length does an incoming req see
system.mem_ctrls.wrQLenPdf::44                      0                       # What write queue length does an incoming req see
system.mem_ctrls.wrQLenPdf::45                      0                       # What write queue length does an incoming req see
system.mem_ctrls.wrQLenPdf::46                      0                       # What write queue length does an incoming req see
system.mem_ctrls.wrQLenPdf::47                      0                       # What write queue length does an incoming req see
system.mem_ctrls.wrQLenPdf::48                      0                       # What write queue length does an incoming req see
system.mem_ctrls.wrQLenPdf::49                      0                       # What write queue length does an incoming req see
system.mem_ctrls.wrQLenPdf::50                      0                       # What write queue length does an incoming req see
system.mem_ctrls.wrQLenPdf::51                      0                       # What write queue length does an incoming req see
system.mem_ctrls.wrQLenPdf::52                      0                       # What write queue length does an incoming req see
system.mem_ctrls.wrQLenPdf::53                      0                       # What write queue length does an incoming req see
system.mem_ctrls.wrQLenPdf::54                      0                       # What write queue length does an incoming req see
system.mem_ctrls.wrQLenPdf::55                      0                       # What write queue length does an incoming req see
system.mem_ctrls.wrQLenPdf::56                      0                       # What write queue length does an incoming req see
system.mem_ctrls.wrQLenPdf::57                      0                       # What write queue length does an incoming req see
system.mem_ctrls.wrQLenPdf::58                      0                       # What write queue length does an incoming req see
system.mem_ctrls.wrQLenPdf::59                      0                       # What write queue length does an incoming req see
system.mem_ctrls.wrQLenPdf::60                      0                       # What write queue length does an incoming req see
system.mem_ctrls.wrQLenPdf::61                      0                       # What write queue length does an incoming req see
system.mem_ctrls.wrQLenPdf::62                      0                       # What write queue length does an incoming req see
system.mem_ctrls.wrQLenPdf::63                      0                       # What write queue length does an incoming req see
system.mem_ctrls.bytesPerActivate::samples          564                       # Bytes accessed per row activation
system.mem_ctrls.bytesPerActivate::mean    358.354610                       # Bytes accessed per row activation
system.mem_ctrls.bytesPerActivate::gmean   216.718665                       # Bytes accessed per row activation
system.mem_ctrls.bytesPerActivate::stdev   342.112736                       # Bytes accessed per row activation
system.mem_ctrls.bytesPerActivate::0-127          167     29.61%     29.61% # Bytes accessed per row activation
system.mem_ctrls.bytesPerActivate::128-255          130     23.05%     52.66% # Bytes accessed per row activation
system.mem_ctrls.bytesPerActivate::256-383           68     12.06%     64.72% # Bytes accessed per row activation
system.mem_ctrls.bytesPerActivate::384-511           36      6.38%     71.10% # Bytes accessed per row activation
system.mem_ctrls.bytesPerActivate::512-639           24      4.26%     75.35% # Bytes accessed per row activation
system.mem_ctrls.bytesPerActivate::640-767           21      3.72%     79.08% # Bytes accessed per row activation
system.mem_ctrls.bytesPerActivate::768-895           28      4.96%     84.04% # Bytes accessed per row activation
system.mem_ctrls.bytesPerActivate::896-1023           25      4.43%     88.48% # Bytes accessed per row activation
system.mem_ctrls.bytesPerActivate::1024-1151           65     11.52%    100.00% # Bytes accessed per row activation
system.mem_ctrls.bytesPerActivate::total          564                       # Bytes accessed per row activation
system.mem_ctrls.bytesReadDRAM                 202816                       # Total number of bytes read from DRAM
system.mem_ctrls.bytesReadWrQ                       0                       # Total number of bytes read from write queue
system.mem_ctrls.bytesWritten                       0                       # Total number of bytes written to DRAM
system.mem_ctrls.bytesReadSys                  202816                       # Total read bytes from the system interface side
system.mem_ctrls.bytesWrittenSys                    0                       # Total written bytes from the system interface side
system.mem_ctrls.avgRdBW                       645.87                       # Average DRAM read bandwidth in MiByte/s
system.mem_ctrls.avgWrBW                         0.00                       # Average achieved write bandwidth in MiByte/s
system.mem_ctrls.avgRdBWSys                    645.87                       # Average system read bandwidth in MiByte/s
system.mem_ctrls.avgWrBWSys                      0.00                       # Average system write bandwidth in MiByte/s
system.mem_ctrls.peakBW                      12800.00                       # Theoretical peak bandwidth in MiByte/s
system.mem_ctrls.busUtil                         5.05                       # Data bus utilization in percentage
system.mem_ctrls.busUtilRead                     5.05                       # Data bus utilization in percentage for reads
system.mem_ctrls.busUtilWrite                    0.00                       # Data bus utilization in percentage for writes
system.mem_ctrls.totGap                     313572006                       # Total gap between requests
system.mem_ctrls.avgGap                      98949.83                       # Average gap between requests
system.mem_ctrls.masterReadBytes::.cpu0.inst        25024                       # Per-master bytes read from memory
system.mem_ctrls.masterReadBytes::.cpu0.data        21952                       # Per-master bytes read from memory
system.mem_ctrls.masterReadBytes::.cpu1.inst        32832                       # Per-master bytes read from memory
system.mem_ctrls.masterReadBytes::.cpu1.data        10816                       # Per-master bytes read from memory
system.mem_ctrls.masterReadBytes::.l2.prefetcher       112192                       # Per-master bytes read from memory
system.mem_ctrls.masterReadRate::.cpu0.inst 79689318.656962379813                       # Per-master bytes read from memory rate (Bytes/sec)
system.mem_ctrls.masterReadRate::.cpu0.data 69906486.699074417353                       # Per-master bytes read from memory rate (Bytes/sec)
system.mem_ctrls.masterReadRate::.cpu1.inst 104554016.549927622080                       # Per-master bytes read from memory rate (Bytes/sec)
system.mem_ctrls.masterReadRate::.cpu1.data 34443720.851730540395                       # Per-master bytes read from memory rate (Bytes/sec)
system.mem_ctrls.masterReadRate::.l2.prefetcher 357277175.462033390999                       # Per-master bytes read from memory rate (Bytes/sec)
system.mem_ctrls.masterReadAccesses::.cpu0.inst          391                       # Per-master read serviced memory accesses
system.mem_ctrls.masterReadAccesses::.cpu0.data          343                       # Per-master read serviced memory accesses
system.mem_ctrls.masterReadAccesses::.cpu1.inst          513                       # Per-master read serviced memory accesses
system.mem_ctrls.masterReadAccesses::.cpu1.data          169                       # Per-master read serviced memory accesses
system.mem_ctrls.masterReadAccesses::.l2.prefetcher         1753                       # Per-master read serviced memory accesses
system.mem_ctrls.masterReadTotalLat::.cpu0.inst     12831750                       # Per-master read total memory access latency
system.mem_ctrls.masterReadTotalLat::.cpu0.data     14308899                       # Per-master read total memory access latency
system.mem_ctrls.masterReadTotalLat::.cpu1.inst     14960763                       # Per-master read total memory access latency
system.mem_ctrls.masterReadTotalLat::.cpu1.data      7086250                       # Per-master read total memory access latency
system.mem_ctrls.masterReadTotalLat::.l2.prefetcher     65348294                       # Per-master read total memory access latency
system.mem_ctrls.masterReadAvgLat::.cpu0.inst     32817.77                       # Per-master read average memory access latency
system.mem_ctrls.masterReadAvgLat::.cpu0.data     41716.91                       # Per-master read average memory access latency
system.mem_ctrls.masterReadAvgLat::.cpu1.inst     29163.28                       # Per-master read average memory access latency
system.mem_ctrls.masterReadAvgLat::.cpu1.data     41930.47                       # Per-master read average memory access latency
system.mem_ctrls.masterReadAvgLat::.l2.prefetcher     37277.98                       # Per-master read average memory access latency
system.mem_ctrls.pageHitRate                    82.08                       # Row buffer hit rate, read and write combined
system.mem_ctrls.rank1.actEnergy              1813560                       # Energy for activate commands per rank (pJ)
system.mem_ctrls.rank1.preEnergy               956340                       # Energy for precharge commands per rank (pJ)
system.mem_ctrls.rank1.readEnergy             8368080                       # Energy for read commands per rank (pJ)
system.mem_ctrls.rank1.writeEnergy                  0                       # Energy for write commands per rank (pJ)
system.mem_ctrls.rank1.refreshEnergy     24585600.000000                       # Energy for refresh commands per rank (pJ)
system.mem_ctrls.rank1.actBackEnergy        131464800                       # Energy for active background per rank (pJ)
system.mem_ctrls.rank1.preBackEnergy          9876480                       # Energy for precharge background per rank (pJ)
system.mem_ctrls.rank1.actPowerDownEnergy            0                       # Energy for active power-down per rank (pJ)
system.mem_ctrls.rank1.prePowerDownEnergy            0                       # Energy for precharge power-down per rank (pJ)
system.mem_ctrls.rank1.selfRefreshEnergy            0                       # Energy for self refresh per rank (pJ)
system.mem_ctrls.rank1.totalEnergy          177064860                       # Total energy per rank (pJ)
system.mem_ctrls.rank1.averagePower        563.865811                       # Core power per rank (mW)
system.mem_ctrls.rank1.totalIdleTime                0                       # Total Idle time Per DRAM Rank
system.mem_ctrls.rank1.memoryStateTime::IDLE     24601536                       # Time in different power states
system.mem_ctrls.rank1.memoryStateTime::REF     10400000                       # Time in different power states
system.mem_ctrls.rank1.memoryStateTime::SREF            0                       # Time in different power states
system.mem_ctrls.rank1.memoryStateTime::PRE_PDN            0                       # Time in different power states
system.mem_ctrls.rank1.memoryStateTime::ACT    279017964                       # Time in different power states
system.mem_ctrls.rank1.memoryStateTime::ACT_PDN            0                       # Time in different power states
system.mem_ctrls.rank0.actEnergy              2241960                       # Energy for activate commands per rank (pJ)
system.mem_ctrls.rank0.preEnergy              1184040                       # Energy for precharge commands per rank (pJ)
system.mem_ctrls.rank0.readEnergy            14258580                       # Energy for read commands per rank (pJ)
system.mem_ctrls.rank0.writeEnergy                  0                       # Energy for write commands per rank (pJ)
system.mem_ctrls.rank0.refreshEnergy     24585600.000000                       # Energy for refresh commands per rank (pJ)
system.mem_ctrls.rank0.actBackEnergy        138395430                       # Energy for active background per rank (pJ)
system.mem_ctrls.rank0.preBackEnergy          4040160                       # Energy for precharge background per rank (pJ)
system.mem_ctrls.rank0.actPowerDownEnergy            0                       # Energy for active power-down per rank (pJ)
system.mem_ctrls.rank0.prePowerDownEnergy            0                       # Energy for precharge power-down per rank (pJ)
system.mem_ctrls.rank0.selfRefreshEnergy            0                       # Energy for self refresh per rank (pJ)
system.mem_ctrls.rank0.totalEnergy          184705770                       # Total energy per rank (pJ)
system.mem_ctrls.rank0.averagePower        588.198408                       # Core power per rank (mW)
system.mem_ctrls.rank0.totalIdleTime                0                       # Total Idle time Per DRAM Rank
system.mem_ctrls.rank0.memoryStateTime::IDLE      9394070                       # Time in different power states
system.mem_ctrls.rank0.memoryStateTime::REF     10400000                       # Time in different power states
system.mem_ctrls.rank0.memoryStateTime::SREF            0                       # Time in different power states
system.mem_ctrls.rank0.memoryStateTime::PRE_PDN            0                       # Time in different power states
system.mem_ctrls.rank0.memoryStateTime::ACT    294225430                       # Time in different power states
system.mem_ctrls.rank0.memoryStateTime::ACT_PDN            0                       # Time in different power states
system.cpu_clk_domain.clock                       500                       # Clock period in ticks
system.tol2bus.pwrStateResidencyTicks::UNDEFINED    314019500                       # Cumulative time (in ticks) in various power states
system.tol2bus.trans_dist::ReadResp              1516                       # Transaction distribution
system.tol2bus.trans_dist::WritebackDirty          835                       # Transaction distribution
system.tol2bus.trans_dist::WritebackClean          365                       # Transaction distribution
system.tol2bus.trans_dist::HardPFReq             2707                       # Transaction distribution
system.tol2bus.trans_dist::ReadExReq             1641                       # Transaction distribution
system.tol2bus.trans_dist::ReadExResp            1641                       # Transaction distribution
system.tol2bus.trans_dist::ReadCleanReq           936                       # Transaction distribution
system.tol2bus.trans_dist::ReadSharedReq          580                       # Transaction distribution
system.tol2bus.pkt_count_system.cpu0.icache.mem_side::system.l2.cpu_side          925                       # Packet count per connected master and slave (bytes)
system.tol2bus.pkt_count_system.cpu0.dcache.mem_side::system.l2.cpu_side         4856                       # Packet count per connected master and slave (bytes)
system.tol2bus.pkt_count_system.cpu1.icache.mem_side::system.l2.cpu_side         1205                       # Packet count per connected master and slave (bytes)
system.tol2bus.pkt_count_system.cpu1.dcache.mem_side::system.l2.cpu_side          528                       # Packet count per connected master and slave (bytes)
system.tol2bus.pkt_count::total                  7514                       # Packet count per connected master and slave (bytes)
system.tol2bus.pkt_size_system.cpu0.icache.mem_side::system.l2.cpu_side        32768                       # Cumulative packet size per connected master and slave (bytes)
system.tol2bus.pkt_size_system.cpu0.dcache.mem_side::system.l2.cpu_side       185344                       # Cumulative packet size per connected master and slave (bytes)
system.tol2bus.pkt_size_system.cpu1.icache.mem_side::system.l2.cpu_side        43648                       # Cumulative packet size per connected master and slave (bytes)
system.tol2bus.pkt_size_system.cpu1.dcache.mem_side::system.l2.cpu_side        17088                       # Cumulative packet size per connected master and slave (bytes)
system.tol2bus.pkt_size::total                 278848                       # Cumulative packet size per connected master and slave (bytes)
system.tol2bus.snoops                            2707                       # Total snoops (count)
system.tol2bus.snoopTraffic                         0                       # Total snoop traffic (bytes)
system.tol2bus.snoop_fanout::samples             5864                       # Request fanout histogram
system.tol2bus.snoop_fanout::mean            0.018247                       # Request fanout histogram
system.tol2bus.snoop_fanout::stdev           0.133855                       # Request fanout histogram
system.tol2bus.snoop_fanout::underflows             0      0.00%      0.00% # Request fanout histogram
system.tol2bus.snoop_fanout::0                   5757     98.18%     98.18% # Request fanout histogram
system.tol2bus.snoop_fanout::1                    107      1.82%    100.00% # Request fanout histogram
system.tol2bus.snoop_fanout::2                      0      0.00%    100.00% # Request fanout histogram
system.tol2bus.snoop_fanout::3                      0      0.00%    100.00% # Request fanout histogram
system.tol2bus.snoop_fanout::4                      0      0.00%    100.00% # Request fanout histogram
system.tol2bus.snoop_fanout::5                      0      0.00%    100.00% # Request fanout histogram
system.tol2bus.snoop_fanout::6                      0      0.00%    100.00% # Request fanout histogram
system.tol2bus.snoop_fanout::7                      0      0.00%    100.00% # Request fanout histogram
system.tol2bus.snoop_fanout::8                      0      0.00%    100.00% # Request fanout histogram
system.tol2bus.snoop_fanout::overflows              0      0.00%    100.00% # Request fanout histogram
system.tol2bus.snoop_fanout::min_value              0                       # Request fanout histogram
system.tol2bus.snoop_fanout::max_value              1                       # Request fanout histogram
system.tol2bus.snoop_fanout::total               5864                       # Request fanout histogram
system.tol2bus.reqLayer0.occupancy            3378500                       # Layer occupancy (ticks)
system.tol2bus.reqLayer0.utilization              1.1                       # Layer utilization (%)
system.tol2bus.respLayer5.occupancy            395991                       # Layer occupancy (ticks)
system.tol2bus.respLayer5.utilization             0.1                       # Layer utilization (%)
system.tol2bus.respLayer4.occupancy            784500                       # Layer occupancy (ticks)
system.tol2bus.respLayer4.utilization             0.2                       # Layer utilization (%)
system.tol2bus.respLayer1.occupancy           2942495                       # Layer occupancy (ticks)
system.tol2bus.respLayer1.utilization             0.9                       # Layer utilization (%)
system.tol2bus.respLayer0.occupancy            619999                       # Layer occupancy (ticks)
system.tol2bus.respLayer0.utilization             0.2                       # Layer utilization (%)

---------- End Simulation Statistics   ----------
