
---------- Begin Simulation Statistics ----------
final_tick                                  774160500                       # Number of ticks from beginning of simulation (restored from checkpoints and never reset)
host_inst_rate                                 215746                       # Simulator instruction rate (inst/s)
host_mem_usage                                 699520                       # Number of bytes of host memory used
host_op_rate                                   243059                       # Simulator op (including micro ops) rate (op/s)
host_seconds                                     7.47                       # Real time elapsed on the host
host_tick_rate                              103642390                       # Simulator tick rate (ticks/s)
sim_freq                                 1000000000000                       # Frequency of simulated ticks
sim_insts                                     1611495                       # Number of instructions simulated
sim_ops                                       1815534                       # Number of ops (including micro ops) simulated
sim_seconds                                  0.000774                       # Number of seconds simulated
sim_ticks                                   774160500                       # Number of ticks simulated
system.cpu0.branchPred.BTBCorrect                   0                       # Number of correct BTB predictions (this stat may not work properly.
system.cpu0.branchPred.BTBHitPct            88.203449                       # BTB Hit Percentage
system.cpu0.branchPred.BTBHits                  85373                       # Number of BTB hits
system.cpu0.branchPred.BTBLookups               96791                       # Number of BTB lookups
system.cpu0.branchPred.RASInCorrect               593                       # Number of incorrect RAS predictions.
system.cpu0.branchPred.condIncorrect             2415                       # Number of conditional branches incorrect
system.cpu0.branchPred.condPredicted           164474                       # Number of conditional branches predicted
system.cpu0.branchPred.indirectHits              2902                       # Number of indirect target hits.
system.cpu0.branchPred.indirectLookups           4175                       # Number of indirect predictor lookups.
system.cpu0.branchPred.indirectMisses            1273                       # Number of indirect misses.
system.cpu0.branchPred.lookups                 211125                       # Number of BP lookups
system.cpu0.branchPred.usedRAS                  13618                       # Number of times the RAS was used to get a target.
system.cpu0.branchPredindirectMispredicted           89                       # Number of mispredicted indirect branches.
system.cpu0.committedInsts                    1000000                       # Number of instructions committed
system.cpu0.committedOps                      1102176                       # Number of ops (including micro ops) committed
system.cpu0.cpi                              1.548321                       # CPI: cycles per instruction
system.cpu0.discardedOps                        13599                       # Number of ops (including micro ops) which were discarded before commit
system.cpu0.dtb.accesses                            0                       # DTB accesses
system.cpu0.dtb.align_faults                        0                       # Number of TLB faults due to alignment restrictions
system.cpu0.dtb.domain_faults                       0                       # Number of TLB faults due to domain restrictions
system.cpu0.dtb.flush_entries                       0                       # Number of entries that have been flushed from TLB
system.cpu0.dtb.flush_tlb                           0                       # Number of times complete TLB was flushed
system.cpu0.dtb.flush_tlb_asid                      0                       # Number of times TLB was flushed by ASID
system.cpu0.dtb.flush_tlb_mva                       0                       # Number of times TLB was flushed by MVA
system.cpu0.dtb.flush_tlb_mva_asid                  0                       # Number of times TLB was flushed by MVA & ASID
system.cpu0.dtb.hits                                0                       # DTB hits
system.cpu0.dtb.inst_accesses                       0                       # ITB inst accesses
system.cpu0.dtb.inst_hits                           0                       # ITB inst hits
system.cpu0.dtb.inst_misses                         0                       # ITB inst misses
system.cpu0.dtb.misses                              0                       # DTB misses
system.cpu0.dtb.perms_faults                        0                       # Number of TLB faults due to permissions restrictions
system.cpu0.dtb.prefetch_faults                     0                       # Number of TLB faults due to prefetch
system.cpu0.dtb.read_accesses                       0                       # DTB read accesses
system.cpu0.dtb.read_hits                           0                       # DTB read hits
system.cpu0.dtb.read_misses                         0                       # DTB read misses
system.cpu0.dtb.stage2_mmu.stage2_tlb.accesses            0                       # DTB accesses
system.cpu0.dtb.stage2_mmu.stage2_tlb.align_faults            0                       # Number of TLB faults due to alignment restrictions
system.cpu0.dtb.stage2_mmu.stage2_tlb.domain_faults            0                       # Number of TLB faults due to domain restrictions
system.cpu0.dtb.stage2_mmu.stage2_tlb.flush_entries            0                       # Number of entries that have been flushed from TLB
system.cpu0.dtb.stage2_mmu.stage2_tlb.flush_tlb            0                       # Number of times complete TLB was flushed
system.cpu0.dtb.stage2_mmu.stage2_tlb.flush_tlb_asid            0                       # Number of times TLB was flushed by ASID
system.cpu0.dtb.stage2_mmu.stage2_tlb.flush_tlb_mva            0                       # Number of times TLB was flushed by MVA
system.cpu0.dtb.stage2_mmu.stage2_tlb.flush_tlb_mva_asid            0                       # Number of times TLB was flushed by MVA & ASID
system.cpu0.dtb.stage2_mmu.stage2_tlb.hits            0                       # DTB hits
system.cpu0.dtb.stage2_mmu.stage2_tlb.inst_accesses            0                       # ITB inst accesses
system.cpu0.dtb.stage2_mmu.stage2_tlb.inst_hits            0                       # ITB inst hits
system.cpu0.dtb.stage2_mmu.stage2_tlb.inst_misses            0                       # ITB inst misses
system.cpu0.dtb.stage2_mmu.stage2_tlb.misses            0                       # DTB misses
system.cpu0.dtb.stage2_mmu.stage2_tlb.perms_faults            0                       # Number of TLB faults due to permissions restrictions
system.cpu0.dtb.stage2_mmu.stage2_tlb.prefetch_faults            0                       # Number of TLB faults due to prefetch
system.cpu0.dtb.stage2_mmu.stage2_tlb.read_accesses            0                       # DTB read accesses
system.cpu0.dtb.stage2_mmu.stage2_tlb.read_hits            0                       # DTB read hits
system.cpu0.dtb.stage2_mmu.stage2_tlb.read_misses            0                       # DTB read misses
system.cpu0.dtb.stage2_mmu.stage2_tlb.walker.walkRequestOrigin_Requested::Data            0                       # Table walker requests started/completed, data/inst
system.cpu0.dtb.stage2_mmu.stage2_tlb.walker.walkRequestOrigin_Requested::Inst            0                       # Table walker requests started/completed, data/inst
system.cpu0.dtb.stage2_mmu.stage2_tlb.walker.walkRequestOrigin_Requested::total            0                       # Table walker requests started/completed, data/inst
system.cpu0.dtb.stage2_mmu.stage2_tlb.walker.walkRequestOrigin_Completed::Data            0                       # Table walker requests started/completed, data/inst
system.cpu0.dtb.stage2_mmu.stage2_tlb.walker.walkRequestOrigin_Completed::Inst            0                       # Table walker requests started/completed, data/inst
system.cpu0.dtb.stage2_mmu.stage2_tlb.walker.walkRequestOrigin_Completed::total            0                       # Table walker requests started/completed, data/inst
system.cpu0.dtb.stage2_mmu.stage2_tlb.walker.walkRequestOrigin::total            0                       # Table walker requests started/completed, data/inst
system.cpu0.dtb.stage2_mmu.stage2_tlb.walker.walks            0                       # Table walker walks requested
system.cpu0.dtb.stage2_mmu.stage2_tlb.write_accesses            0                       # DTB write accesses
system.cpu0.dtb.stage2_mmu.stage2_tlb.write_hits            0                       # DTB write hits
system.cpu0.dtb.stage2_mmu.stage2_tlb.write_misses            0                       # DTB write misses
system.cpu0.dtb.walker.walkRequestOrigin_Requested::Data            0                       # Table walker requests started/completed, data/inst
system.cpu0.dtb.walker.walkRequestOrigin_Requested::Inst            0                       # Table walker requests started/completed, data/inst
system.cpu0.dtb.walker.walkRequestOrigin_Requested::total            0                       # Table walker requests started/completed, data/inst
system.cpu0.dtb.walker.walkRequestOrigin_Completed::Data            0                       # Table walker requests started/completed, data/inst
system.cpu0.dtb.walker.walkRequestOrigin_Completed::Inst            0                       # Table walker requests started/completed, data/inst
system.cpu0.dtb.walker.walkRequestOrigin_Completed::total            0                       # Table walker requests started/completed, data/inst
system.cpu0.dtb.walker.walkRequestOrigin::total            0                       # Table walker requests started/completed, data/inst
system.cpu0.dtb.walker.walks                        0                       # Table walker walks requested
system.cpu0.dtb.write_accesses                      0                       # DTB write accesses
system.cpu0.dtb.write_hits                          0                       # DTB write hits
system.cpu0.dtb.write_misses                        0                       # DTB write misses
system.cpu0.fetch2.amo_instructions                 0                       # Number of memory atomic instructions successfully decoded
system.cpu0.fetch2.fp_instructions                  0                       # Number of floating point instructions successfully decoded
system.cpu0.fetch2.int_instructions            480719                       # Number of integer instructions successfully decoded
system.cpu0.fetch2.load_instructions           185270                       # Number of memory load instructions successfully decoded
system.cpu0.fetch2.store_instructions          126725                       # Number of memory store instructions successfully decoded
system.cpu0.fetch2.vec_instructions                 0                       # Number of SIMD instructions successfully decoded
system.cpu0.idleCycles                         379890                       # Total number of cycles that the object has spent stopped
system.cpu0.ipc                              0.645861                       # IPC: instructions per cycle
system.cpu0.itb.accesses                            0                       # DTB accesses
system.cpu0.itb.align_faults                        0                       # Number of TLB faults due to alignment restrictions
system.cpu0.itb.domain_faults                       0                       # Number of TLB faults due to domain restrictions
system.cpu0.itb.flush_entries                       0                       # Number of entries that have been flushed from TLB
system.cpu0.itb.flush_tlb                           0                       # Number of times complete TLB was flushed
system.cpu0.itb.flush_tlb_asid                      0                       # Number of times TLB was flushed by ASID
system.cpu0.itb.flush_tlb_mva                       0                       # Number of times TLB was flushed by MVA
system.cpu0.itb.flush_tlb_mva_asid                  0                       # Number of times TLB was flushed by MVA & ASID
system.cpu0.itb.hits                                0                       # DTB hits
system.cpu0.itb.inst_accesses                       0                       # ITB inst accesses
system.cpu0.itb.inst_hits                           0                       # ITB inst hits
system.cpu0.itb.inst_misses                         0                       # ITB inst misses
system.cpu0.itb.misses                              0                       # DTB misses
system.cpu0.itb.perms_faults                        0                       # Number of TLB faults due to permissions restrictions
system.cpu0.itb.prefetch_faults                     0                       # Number of TLB faults due to prefetch
system.cpu0.itb.read_accesses                       0                       # DTB read accesses
system.cpu0.itb.read_hits                           0                       # DTB read hits
system.cpu0.itb.read_misses                         0                       # DTB read misses
system.cpu0.itb.stage2_mmu.stage2_tlb.accesses            0                       # DTB accesses
system.cpu0.itb.stage2_mmu.stage2_tlb.align_faults            0                       # Number of TLB faults due to alignment restrictions
system.cpu0.itb.stage2_mmu.stage2_tlb.domain_faults            0                       # Number of TLB faults due to domain restrictions
system.cpu0.itb.stage2_mmu.stage2_tlb.flush_entries            0                       # Number of entries that have been flushed from TLB
system.cpu0.itb.stage2_mmu.stage2_tlb.flush_tlb            0                       # Number of times complete TLB was flushed
system.cpu0.itb.stage2_mmu.stage2_tlb.flush_tlb_asid            0                       # Number of times TLB was flushed by ASID
system.cpu0.itb.stage2_mmu.stage2_tlb.flush_tlb_mva            0                       # Number of times TLB was flushed by MVA
system.cpu0.itb.stage2_mmu.stage2_tlb.flush_tlb_mva_asid            0                       # Number of times TLB was flushed by MVA & ASID
system.cpu0.itb.stage2_mmu.stage2_tlb.hits            0                       # DTB hits
system.cpu0.itb.stage2_mmu.stage2_tlb.inst_accesses            0                       # ITB inst accesses
system.cpu0.itb.stage2_mmu.stage2_tlb.inst_hits            0                       # ITB inst hits
system.cpu0.itb.stage2_mmu.stage2_tlb.inst_misses            0                       # ITB inst misses
system.cpu0.itb.stage2_mmu.stage2_tlb.misses            0                       # DTB misses
system.cpu0.itb.stage2_mmu.stage2_tlb.perms_faults            0                       # Number of TLB faults due to permissions restrictions
system.cpu0.itb.stage2_mmu.stage2_tlb.prefetch_faults            0                       # Number of TLB faults due to prefetch
system.cpu0.itb.stage2_mmu.stage2_tlb.read_accesses            0                       # DTB read accesses
system.cpu0.itb.stage2_mmu.stage2_tlb.read_hits            0                       # DTB read hits
system.cpu0.itb.stage2_mmu.stage2_tlb.read_misses            0                       # DTB read misses
system.cpu0.itb.stage2_mmu.stage2_tlb.walker.walkRequestOrigin_Requested::Data            0                       # Table walker requests started/completed, data/inst
system.cpu0.itb.stage2_mmu.stage2_tlb.walker.walkRequestOrigin_Requested::Inst            0                       # Table walker requests started/completed, data/inst
system.cpu0.itb.stage2_mmu.stage2_tlb.walker.walkRequestOrigin_Requested::total            0                       # Table walker requests started/completed, data/inst
system.cpu0.itb.stage2_mmu.stage2_tlb.walker.walkRequestOrigin_Completed::Data            0                       # Table walker requests started/completed, data/inst
system.cpu0.itb.stage2_mmu.stage2_tlb.walker.walkRequestOrigin_Completed::Inst            0                       # Table walker requests started/completed, data/inst
system.cpu0.itb.stage2_mmu.stage2_tlb.walker.walkRequestOrigin_Completed::total            0                       # Table walker requests started/completed, data/inst
system.cpu0.itb.stage2_mmu.stage2_tlb.walker.walkRequestOrigin::total            0                       # Table walker requests started/completed, data/inst
system.cpu0.itb.stage2_mmu.stage2_tlb.walker.walks            0                       # Table walker walks requested
system.cpu0.itb.stage2_mmu.stage2_tlb.write_accesses            0                       # DTB write accesses
system.cpu0.itb.stage2_mmu.stage2_tlb.write_hits            0                       # DTB write hits
system.cpu0.itb.stage2_mmu.stage2_tlb.write_misses            0                       # DTB write misses
system.cpu0.itb.walker.walkRequestOrigin_Requested::Data            0                       # Table walker requests started/completed, data/inst
system.cpu0.itb.walker.walkRequestOrigin_Requested::Inst            0                       # Table walker requests started/completed, data/inst
system.cpu0.itb.walker.walkRequestOrigin_Requested::total            0                       # Table walker requests started/completed, data/inst
system.cpu0.itb.walker.walkRequestOrigin_Completed::Data            0                       # Table walker requests started/completed, data/inst
system.cpu0.itb.walker.walkRequestOrigin_Completed::Inst            0                       # Table walker requests started/completed, data/inst
system.cpu0.itb.walker.walkRequestOrigin_Completed::total            0                       # Table walker requests started/completed, data/inst
system.cpu0.itb.walker.walkRequestOrigin::total            0                       # Table walker requests started/completed, data/inst
system.cpu0.itb.walker.walks                        0                       # Table walker walks requested
system.cpu0.itb.write_accesses                      0                       # DTB write accesses
system.cpu0.itb.write_hits                          0                       # DTB write hits
system.cpu0.itb.write_misses                        0                       # DTB write misses
system.cpu0.numCycles                         1548321                       # number of cpu cycles simulated
system.cpu0.numFetchSuspends                        0                       # Number of times Execute suspended instruction fetching
system.cpu0.numWorkItemsCompleted                   0                       # number of work items this cpu completed
system.cpu0.numWorkItemsStarted                     0                       # number of work items this cpu started
system.cpu0.op_class_0::No_OpClass                  0      0.00%      0.00% # Class of committed instruction
system.cpu0.op_class_0::IntAlu                 703969     63.87%     63.87% # Class of committed instruction
system.cpu0.op_class_0::IntMult                  3467      0.31%     64.19% # Class of committed instruction
system.cpu0.op_class_0::IntDiv                      0      0.00%     64.19% # Class of committed instruction
system.cpu0.op_class_0::FloatAdd                    0      0.00%     64.19% # Class of committed instruction
system.cpu0.op_class_0::FloatCmp                    0      0.00%     64.19% # Class of committed instruction
system.cpu0.op_class_0::FloatCvt                    0      0.00%     64.19% # Class of committed instruction
system.cpu0.op_class_0::FloatMult                   0      0.00%     64.19% # Class of committed instruction
system.cpu0.op_class_0::FloatMultAcc                0      0.00%     64.19% # Class of committed instruction
system.cpu0.op_class_0::FloatDiv                    0      0.00%     64.19% # Class of committed instruction
system.cpu0.op_class_0::FloatMisc                   0      0.00%     64.19% # Class of committed instruction
system.cpu0.op_class_0::FloatSqrt                   0      0.00%     64.19% # Class of committed instruction
system.cpu0.op_class_0::SimdAdd                     0      0.00%     64.19% # Class of committed instruction
system.cpu0.op_class_0::SimdAddAcc                  0      0.00%     64.19% # Class of committed instruction
system.cpu0.op_class_0::SimdAlu                     0      0.00%     64.19% # Class of committed instruction
system.cpu0.op_class_0::SimdCmp                     0      0.00%     64.19% # Class of committed instruction
system.cpu0.op_class_0::SimdCvt                     0      0.00%     64.19% # Class of committed instruction
system.cpu0.op_class_0::SimdMisc                    0      0.00%     64.19% # Class of committed instruction
system.cpu0.op_class_0::SimdMult                    0      0.00%     64.19% # Class of committed instruction
system.cpu0.op_class_0::SimdMultAcc                 0      0.00%     64.19% # Class of committed instruction
system.cpu0.op_class_0::SimdShift                   0      0.00%     64.19% # Class of committed instruction
system.cpu0.op_class_0::SimdShiftAcc                0      0.00%     64.19% # Class of committed instruction
system.cpu0.op_class_0::SimdDiv                     0      0.00%     64.19% # Class of committed instruction
system.cpu0.op_class_0::SimdSqrt                    0      0.00%     64.19% # Class of committed instruction
system.cpu0.op_class_0::SimdFloatAdd                0      0.00%     64.19% # Class of committed instruction
system.cpu0.op_class_0::SimdFloatAlu                0      0.00%     64.19% # Class of committed instruction
system.cpu0.op_class_0::SimdFloatCmp                0      0.00%     64.19% # Class of committed instruction
system.cpu0.op_class_0::SimdFloatCvt                0      0.00%     64.19% # Class of committed instruction
system.cpu0.op_class_0::SimdFloatDiv                0      0.00%     64.19% # Class of committed instruction
system.cpu0.op_class_0::SimdFloatMisc               0      0.00%     64.19% # Class of committed instruction
system.cpu0.op_class_0::SimdFloatMult               0      0.00%     64.19% # Class of committed instruction
system.cpu0.op_class_0::SimdFloatMultAcc            0      0.00%     64.19% # Class of committed instruction
system.cpu0.op_class_0::SimdFloatSqrt               0      0.00%     64.19% # Class of committed instruction
system.cpu0.op_class_0::SimdReduceAdd               0      0.00%     64.19% # Class of committed instruction
system.cpu0.op_class_0::SimdReduceAlu               0      0.00%     64.19% # Class of committed instruction
system.cpu0.op_class_0::SimdReduceCmp               0      0.00%     64.19% # Class of committed instruction
system.cpu0.op_class_0::SimdFloatReduceAdd            0      0.00%     64.19% # Class of committed instruction
system.cpu0.op_class_0::SimdFloatReduceCmp            0      0.00%     64.19% # Class of committed instruction
system.cpu0.op_class_0::SimdAes                     0      0.00%     64.19% # Class of committed instruction
system.cpu0.op_class_0::SimdAesMix                  0      0.00%     64.19% # Class of committed instruction
system.cpu0.op_class_0::SimdSha1Hash                0      0.00%     64.19% # Class of committed instruction
system.cpu0.op_class_0::SimdSha1Hash2               0      0.00%     64.19% # Class of committed instruction
system.cpu0.op_class_0::SimdSha256Hash              0      0.00%     64.19% # Class of committed instruction
system.cpu0.op_class_0::SimdSha256Hash2             0      0.00%     64.19% # Class of committed instruction
system.cpu0.op_class_0::SimdShaSigma2               0      0.00%     64.19% # Class of committed instruction
system.cpu0.op_class_0::SimdShaSigma3               0      0.00%     64.19% # Class of committed instruction
system.cpu0.op_class_0::SimdPredAlu                 0      0.00%     64.19% # Class of committed instruction
system.cpu0.op_class_0::MemRead                216941     19.68%     83.87% # Class of committed instruction
system.cpu0.op_class_0::MemWrite               177799     16.13%    100.00% # Class of committed instruction
system.cpu0.op_class_0::FloatMemRead                0      0.00%    100.00% # Class of committed instruction
system.cpu0.op_class_0::FloatMemWrite               0      0.00%    100.00% # Class of committed instruction
system.cpu0.op_class_0::IprAccess                   0      0.00%    100.00% # Class of committed instruction
system.cpu0.op_class_0::InstPrefetch                0      0.00%    100.00% # Class of committed instruction
system.cpu0.op_class_0::total                 1102176                       # Class of committed instruction
system.cpu0.tickCycles                        1168431                       # Number of cycles that the object actually ticked
system.cpu0.workload.numSyscalls                   23                       # Number of system calls
system.cpu1.branchPred.BTBCorrect                   0                       # Number of correct BTB predictions (this stat may not work properly.
system.cpu1.branchPred.BTBHitPct            98.466933                       # BTB Hit Percentage
system.cpu1.branchPred.BTBHits                 101096                       # Number of BTB hits
system.cpu1.branchPred.BTBLookups              102670                       # Number of BTB lookups
system.cpu1.branchPred.RASInCorrect                 8                       # Number of incorrect RAS predictions.
system.cpu1.branchPred.condIncorrect              476                       # Number of conditional branches incorrect
system.cpu1.branchPred.condPredicted           102307                       # Number of conditional branches predicted
system.cpu1.branchPred.indirectHits                 6                       # Number of indirect target hits.
system.cpu1.branchPred.indirectLookups            100                       # Number of indirect predictor lookups.
system.cpu1.branchPred.indirectMisses              94                       # Number of indirect misses.
system.cpu1.branchPred.lookups                 103180                       # Number of BP lookups
system.cpu1.branchPred.usedRAS                    264                       # Number of times the RAS was used to get a target.
system.cpu1.branchPredindirectMispredicted           56                       # Number of mispredicted indirect branches.
system.cpu1.committedInsts                     611495                       # Number of instructions committed
system.cpu1.committedOps                       713358                       # Number of ops (including micro ops) committed
system.cpu1.cpi                              2.532026                       # CPI: cycles per instruction
system.cpu1.discardedOps                         1475                       # Number of ops (including micro ops) which were discarded before commit
system.cpu1.dtb.accesses                            0                       # DTB accesses
system.cpu1.dtb.align_faults                        0                       # Number of TLB faults due to alignment restrictions
system.cpu1.dtb.domain_faults                       0                       # Number of TLB faults due to domain restrictions
system.cpu1.dtb.flush_entries                       0                       # Number of entries that have been flushed from TLB
system.cpu1.dtb.flush_tlb                           0                       # Number of times complete TLB was flushed
system.cpu1.dtb.flush_tlb_asid                      0                       # Number of times TLB was flushed by ASID
system.cpu1.dtb.flush_tlb_mva                       0                       # Number of times TLB was flushed by MVA
system.cpu1.dtb.flush_tlb_mva_asid                  0                       # Number of times TLB was flushed by MVA & ASID
system.cpu1.dtb.hits                                0                       # DTB hits
system.cpu1.dtb.inst_accesses                       0                       # ITB inst accesses
system.cpu1.dtb.inst_hits                           0                       # ITB inst hits
system.cpu1.dtb.inst_misses                         0                       # ITB inst misses
system.cpu1.dtb.misses                              0                       # DTB misses
system.cpu1.dtb.perms_faults                        0                       # Number of TLB faults due to permissions restrictions
system.cpu1.dtb.prefetch_faults                     0                       # Number of TLB faults due to prefetch
system.cpu1.dtb.read_accesses                       0                       # DTB read accesses
system.cpu1.dtb.read_hits                           0                       # DTB read hits
system.cpu1.dtb.read_misses                         0                       # DTB read misses
system.cpu1.dtb.stage2_mmu.stage2_tlb.accesses            0                       # DTB accesses
system.cpu1.dtb.stage2_mmu.stage2_tlb.align_faults            0                       # Number of TLB faults due to alignment restrictions
system.cpu1.dtb.stage2_mmu.stage2_tlb.domain_faults            0                       # Number of TLB faults due to domain restrictions
system.cpu1.dtb.stage2_mmu.stage2_tlb.flush_entries            0                       # Number of entries that have been flushed from TLB
system.cpu1.dtb.stage2_mmu.stage2_tlb.flush_tlb            0                       # Number of times complete TLB was flushed
system.cpu1.dtb.stage2_mmu.stage2_tlb.flush_tlb_asid            0                       # Number of times TLB was flushed by ASID
system.cpu1.dtb.stage2_mmu.stage2_tlb.flush_tlb_mva            0                       # Number of times TLB was flushed by MVA
system.cpu1.dtb.stage2_mmu.stage2_tlb.flush_tlb_mva_asid            0                       # Number of times TLB was flushed by MVA & ASID
system.cpu1.dtb.stage2_mmu.stage2_tlb.hits            0                       # DTB hits
system.cpu1.dtb.stage2_mmu.stage2_tlb.inst_accesses            0                       # ITB inst accesses
system.cpu1.dtb.stage2_mmu.stage2_tlb.inst_hits            0                       # ITB inst hits
system.cpu1.dtb.stage2_mmu.stage2_tlb.inst_misses            0                       # ITB inst misses
system.cpu1.dtb.stage2_mmu.stage2_tlb.misses            0                       # DTB misses
system.cpu1.dtb.stage2_mmu.stage2_tlb.perms_faults            0                       # Number of TLB faults due to permissions restrictions
system.cpu1.dtb.stage2_mmu.stage2_tlb.prefetch_faults            0                       # Number of TLB faults due to prefetch
system.cpu1.dtb.stage2_mmu.stage2_tlb.read_accesses            0                       # DTB read accesses
system.cpu1.dtb.stage2_mmu.stage2_tlb.read_hits            0                       # DTB read hits
system.cpu1.dtb.stage2_mmu.stage2_tlb.read_misses            0                       # DTB read misses
system.cpu1.dtb.stage2_mmu.stage2_tlb.walker.walkRequestOrigin_Requested::Data            0                       # Table walker requests started/completed, data/inst
system.cpu1.dtb.stage2_mmu.stage2_tlb.walker.walkRequestOrigin_Requested::Inst            0                       # Table walker requests started/completed, data/inst
system.cpu1.dtb.stage2_mmu.stage2_tlb.walker.walkRequestOrigin_Requested::total            0                       # Table walker requests started/completed, data/inst
system.cpu1.dtb.stage2_mmu.stage2_tlb.walker.walkRequestOrigin_Completed::Data            0                       # Table walker requests started/completed, data/inst
system.cpu1.dtb.stage2_mmu.stage2_tlb.walker.walkRequestOrigin_Completed::Inst            0                       # Table walker requests started/completed, data/inst
system.cpu1.dtb.stage2_mmu.stage2_tlb.walker.walkRequestOrigin_Completed::total            0                       # Table walker requests started/completed, data/inst
system.cpu1.dtb.stage2_mmu.stage2_tlb.walker.walkRequestOrigin::total            0                       # Table walker requests started/completed, data/inst
system.cpu1.dtb.stage2_mmu.stage2_tlb.walker.walks            0                       # Table walker walks requested
system.cpu1.dtb.stage2_mmu.stage2_tlb.write_accesses            0                       # DTB write accesses
system.cpu1.dtb.stage2_mmu.stage2_tlb.write_hits            0                       # DTB write hits
system.cpu1.dtb.stage2_mmu.stage2_tlb.write_misses            0                       # DTB write misses
system.cpu1.dtb.walker.walkRequestOrigin_Requested::Data            0                       # Table walker requests started/completed, data/inst
system.cpu1.dtb.walker.walkRequestOrigin_Requested::Inst            0                       # Table walker requests started/completed, data/inst
system.cpu1.dtb.walker.walkRequestOrigin_Requested::total            0                       # Table walker requests started/completed, data/inst
system.cpu1.dtb.walker.walkRequestOrigin_Completed::Data            0                       # Table walker requests started/completed, data/inst
system.cpu1.dtb.walker.walkRequestOrigin_Completed::Inst            0                       # Table walker requests started/completed, data/inst
system.cpu1.dtb.walker.walkRequestOrigin_Completed::total            0                       # Table walker requests started/completed, data/inst
system.cpu1.dtb.walker.walkRequestOrigin::total            0                       # Table walker requests started/completed, data/inst
system.cpu1.dtb.walker.walks                        0                       # Table walker walks requested
system.cpu1.dtb.write_accesses                      0                       # DTB write accesses
system.cpu1.dtb.write_hits                          0                       # DTB write hits
system.cpu1.dtb.write_misses                        0                       # DTB write misses
system.cpu1.fetch2.amo_instructions                 0                       # Number of memory atomic instructions successfully decoded
system.cpu1.fetch2.fp_instructions                  0                       # Number of floating point instructions successfully decoded
system.cpu1.fetch2.int_instructions            309475                       # Number of integer instructions successfully decoded
system.cpu1.fetch2.load_instructions           102413                       # Number of memory load instructions successfully decoded
system.cpu1.fetch2.store_instructions            1345                       # Number of memory store instructions successfully decoded
system.cpu1.fetch2.vec_instructions                 0                       # Number of SIMD instructions successfully decoded
system.cpu1.idleCycles                         866517                       # Total number of cycles that the object has spent stopped
system.cpu1.ipc                              0.394941                       # IPC: instructions per cycle
system.cpu1.itb.accesses                            0                       # DTB accesses
system.cpu1.itb.align_faults                        0                       # Number of TLB faults due to alignment restrictions
system.cpu1.itb.domain_faults                       0                       # Number of TLB faults due to domain restrictions
system.cpu1.itb.flush_entries                       0                       # Number of entries that have been flushed from TLB
system.cpu1.itb.flush_tlb                           0                       # Number of times complete TLB was flushed
system.cpu1.itb.flush_tlb_asid                      0                       # Number of times TLB was flushed by ASID
system.cpu1.itb.flush_tlb_mva                       0                       # Number of times TLB was flushed by MVA
system.cpu1.itb.flush_tlb_mva_asid                  0                       # Number of times TLB was flushed by MVA & ASID
system.cpu1.itb.hits                                0                       # DTB hits
system.cpu1.itb.inst_accesses                       0                       # ITB inst accesses
system.cpu1.itb.inst_hits                           0                       # ITB inst hits
system.cpu1.itb.inst_misses                         0                       # ITB inst misses
system.cpu1.itb.misses                              0                       # DTB misses
system.cpu1.itb.perms_faults                        0                       # Number of TLB faults due to permissions restrictions
system.cpu1.itb.prefetch_faults                     0                       # Number of TLB faults due to prefetch
system.cpu1.itb.read_accesses                       0                       # DTB read accesses
system.cpu1.itb.read_hits                           0                       # DTB read hits
system.cpu1.itb.read_misses                         0                       # DTB read misses
system.cpu1.itb.stage2_mmu.stage2_tlb.accesses            0                       # DTB accesses
system.cpu1.itb.stage2_mmu.stage2_tlb.align_faults            0                       # Number of TLB faults due to alignment restrictions
system.cpu1.itb.stage2_mmu.stage2_tlb.domain_faults            0                       # Number of TLB faults due to domain restrictions
system.cpu1.itb.stage2_mmu.stage2_tlb.flush_entries            0                       # Number of entries that have been flushed from TLB
system.cpu1.itb.stage2_mmu.stage2_tlb.flush_tlb            0                       # Number of times complete TLB was flushed
system.cpu1.itb.stage2_mmu.stage2_tlb.flush_tlb_asid            0                       # Number of times TLB was flushed by ASID
system.cpu1.itb.stage2_mmu.stage2_tlb.flush_tlb_mva            0                       # Number of times TLB was flushed by MVA
system.cpu1.itb.stage2_mmu.stage2_tlb.flush_tlb_mva_asid            0                       # Number of times TLB was flushed by MVA & ASID
system.cpu1.itb.stage2_mmu.stage2_tlb.hits            0                       # DTB hits
system.cpu1.itb.stage2_mmu.stage2_tlb.inst_accesses            0                       # ITB inst accesses
system.cpu1.itb.stage2_mmu.stage2_tlb.inst_hits            0                       # ITB inst hits
system.cpu1.itb.stage2_mmu.stage2_tlb.inst_misses            0                       # ITB inst misses
system.cpu1.itb.stage2_mmu.stage2_tlb.misses            0                       # DTB misses
system.cpu1.itb.stage2_mmu.stage2_tlb.perms_faults            0                       # Number of TLB faults due to permissions restrictions
system.cpu1.itb.stage2_mmu.stage2_tlb.prefetch_faults            0                       # Number of TLB faults due to prefetch
system.cpu1.itb.stage2_mmu.stage2_tlb.read_accesses            0                       # DTB read accesses
system.cpu1.itb.stage2_mmu.stage2_tlb.read_hits            0                       # DTB read hits
system.cpu1.itb.stage2_mmu.stage2_tlb.read_misses            0                       # DTB read misses
system.cpu1.itb.stage2_mmu.stage2_tlb.walker.walkRequestOrigin_Requested::Data            0                       # Table walker requests started/completed, data/inst
system.cpu1.itb.stage2_mmu.stage2_tlb.walker.walkRequestOrigin_Requested::Inst            0                       # Table walker requests started/completed, data/inst
system.cpu1.itb.stage2_mmu.stage2_tlb.walker.walkRequestOrigin_Requested::total            0                       # Table walker requests started/completed, data/inst
system.cpu1.itb.stage2_mmu.stage2_tlb.walker.walkRequestOrigin_Completed::Data            0                       # Table walker requests started/completed, data/inst
system.cpu1.itb.stage2_mmu.stage2_tlb.walker.walkRequestOrigin_Completed::Inst            0                       # Table walker requests started/completed, data/inst
system.cpu1.itb.stage2_mmu.stage2_tlb.walker.walkRequestOrigin_Completed::total            0                       # Table walker requests started/completed, data/inst
system.cpu1.itb.stage2_mmu.stage2_tlb.walker.walkRequestOrigin::total            0                       # Table walker requests started/completed, data/inst
system.cpu1.itb.stage2_mmu.stage2_tlb.walker.walks            0                       # Table walker walks requested
system.cpu1.itb.stage2_mmu.stage2_tlb.write_accesses            0                       # DTB write accesses
system.cpu1.itb.stage2_mmu.stage2_tlb.write_hits            0                       # DTB write hits
system.cpu1.itb.stage2_mmu.stage2_tlb.write_misses            0                       # DTB write misses
system.cpu1.itb.walker.walkRequestOrigin_Requested::Data            0                       # Table walker requests started/completed, data/inst
system.cpu1.itb.walker.walkRequestOrigin_Requested::Inst            0                       # Table walker requests started/completed, data/inst
system.cpu1.itb.walker.walkRequestOrigin_Requested::total            0                       # Table walker requests started/completed, data/inst
system.cpu1.itb.walker.walkRequestOrigin_Completed::Data            0                       # Table walker requests started/completed, data/inst
system.cpu1.itb.walker.walkRequestOrigin_Completed::Inst            0                       # Table walker requests started/completed, data/inst
system.cpu1.itb.walker.walkRequestOrigin_Completed::total            0                       # Table walker requests started/completed, data/inst
system.cpu1.itb.walker.walkRequestOrigin::total            0                       # Table walker requests started/completed, data/inst
system.cpu1.itb.walker.walks                        0                       # Table walker walks requested
system.cpu1.itb.write_accesses                      0                       # DTB write accesses
system.cpu1.itb.write_hits                          0                       # DTB write hits
system.cpu1.itb.write_misses                        0                       # DTB write misses
system.cpu1.numCycles                         1548321                       # number of cpu cycles simulated
system.cpu1.numFetchSuspends                        0                       # Number of times Execute suspended instruction fetching
system.cpu1.numWorkItemsCompleted                   0                       # number of work items this cpu completed
system.cpu1.numWorkItemsStarted                     0                       # number of work items this cpu started
system.cpu1.op_class_0::No_OpClass                  0      0.00%      0.00% # Class of committed instruction
system.cpu1.op_class_0::IntAlu                 509199     71.38%     71.38% # Class of committed instruction
system.cpu1.op_class_0::IntMult                    35      0.00%     71.39% # Class of committed instruction
system.cpu1.op_class_0::IntDiv                      0      0.00%     71.39% # Class of committed instruction
system.cpu1.op_class_0::FloatAdd                    0      0.00%     71.39% # Class of committed instruction
system.cpu1.op_class_0::FloatCmp                    0      0.00%     71.39% # Class of committed instruction
system.cpu1.op_class_0::FloatCvt                    0      0.00%     71.39% # Class of committed instruction
system.cpu1.op_class_0::FloatMult                   0      0.00%     71.39% # Class of committed instruction
system.cpu1.op_class_0::FloatMultAcc                0      0.00%     71.39% # Class of committed instruction
system.cpu1.op_class_0::FloatDiv                    0      0.00%     71.39% # Class of committed instruction
system.cpu1.op_class_0::FloatMisc                   0      0.00%     71.39% # Class of committed instruction
system.cpu1.op_class_0::FloatSqrt                   0      0.00%     71.39% # Class of committed instruction
system.cpu1.op_class_0::SimdAdd                     0      0.00%     71.39% # Class of committed instruction
system.cpu1.op_class_0::SimdAddAcc                  0      0.00%     71.39% # Class of committed instruction
system.cpu1.op_class_0::SimdAlu                     0      0.00%     71.39% # Class of committed instruction
system.cpu1.op_class_0::SimdCmp                     0      0.00%     71.39% # Class of committed instruction
system.cpu1.op_class_0::SimdCvt                     0      0.00%     71.39% # Class of committed instruction
system.cpu1.op_class_0::SimdMisc                    0      0.00%     71.39% # Class of committed instruction
system.cpu1.op_class_0::SimdMult                    0      0.00%     71.39% # Class of committed instruction
system.cpu1.op_class_0::SimdMultAcc                 0      0.00%     71.39% # Class of committed instruction
system.cpu1.op_class_0::SimdShift                   0      0.00%     71.39% # Class of committed instruction
system.cpu1.op_class_0::SimdShiftAcc                0      0.00%     71.39% # Class of committed instruction
system.cpu1.op_class_0::SimdDiv                     0      0.00%     71.39% # Class of committed instruction
system.cpu1.op_class_0::SimdSqrt                    0      0.00%     71.39% # Class of committed instruction
system.cpu1.op_class_0::SimdFloatAdd                0      0.00%     71.39% # Class of committed instruction
system.cpu1.op_class_0::SimdFloatAlu                0      0.00%     71.39% # Class of committed instruction
system.cpu1.op_class_0::SimdFloatCmp                0      0.00%     71.39% # Class of committed instruction
system.cpu1.op_class_0::SimdFloatCvt                2      0.00%     71.39% # Class of committed instruction
system.cpu1.op_class_0::SimdFloatDiv                1      0.00%     71.39% # Class of committed instruction
system.cpu1.op_class_0::SimdFloatMisc               2      0.00%     71.39% # Class of committed instruction
system.cpu1.op_class_0::SimdFloatMult               1      0.00%     71.39% # Class of committed instruction
system.cpu1.op_class_0::SimdFloatMultAcc            0      0.00%     71.39% # Class of committed instruction
system.cpu1.op_class_0::SimdFloatSqrt               0      0.00%     71.39% # Class of committed instruction
system.cpu1.op_class_0::SimdReduceAdd               0      0.00%     71.39% # Class of committed instruction
system.cpu1.op_class_0::SimdReduceAlu               0      0.00%     71.39% # Class of committed instruction
system.cpu1.op_class_0::SimdReduceCmp               0      0.00%     71.39% # Class of committed instruction
system.cpu1.op_class_0::SimdFloatReduceAdd            0      0.00%     71.39% # Class of committed instruction
system.cpu1.op_class_0::SimdFloatReduceCmp            0      0.00%     71.39% # Class of committed instruction
system.cpu1.op_class_0::SimdAes                     0      0.00%     71.39% # Class of committed instruction
system.cpu1.op_class_0::SimdAesMix                  0      0.00%     71.39% # Class of committed instruction
system.cpu1.op_class_0::SimdSha1Hash                0      0.00%     71.39% # Class of committed instruction
system.cpu1.op_class_0::SimdSha1Hash2               0      0.00%     71.39% # Class of committed instruction
system.cpu1.op_class_0::SimdSha256Hash              0      0.00%     71.39% # Class of committed instruction
system.cpu1.op_class_0::SimdSha256Hash2             0      0.00%     71.39% # Class of committed instruction
system.cpu1.op_class_0::SimdShaSigma2               0      0.00%     71.39% # Class of committed instruction
system.cpu1.op_class_0::SimdShaSigma3               0      0.00%     71.39% # Class of committed instruction
system.cpu1.op_class_0::SimdPredAlu                 0      0.00%     71.39% # Class of committed instruction
system.cpu1.op_class_0::MemRead                101941     14.29%     85.68% # Class of committed instruction
system.cpu1.op_class_0::MemWrite               102177     14.32%    100.00% # Class of committed instruction
system.cpu1.op_class_0::FloatMemRead                0      0.00%    100.00% # Class of committed instruction
system.cpu1.op_class_0::FloatMemWrite               0      0.00%    100.00% # Class of committed instruction
system.cpu1.op_class_0::IprAccess                   0      0.00%    100.00% # Class of committed instruction
system.cpu1.op_class_0::InstPrefetch                0      0.00%    100.00% # Class of committed instruction
system.cpu1.op_class_0::total                  713358                       # Class of committed instruction
system.cpu1.tickCycles                         681804                       # Number of cycles that the object actually ticked
system.cpu1.workload.numSyscalls                   11                       # Number of system calls
system.membus.snoop_filter.hit_multi_requests            0                       # Number of requests hitting in the snoop filter with multiple (>1) holders of the requested data.
system.membus.snoop_filter.hit_multi_snoops            0                       # Number of snoops hitting in the snoop filter with multiple (>1) holders of the requested data.
system.membus.snoop_filter.hit_single_requests            0                       # Number of requests hitting in the snoop filter with a single holder of the requested data.
system.membus.snoop_filter.hit_single_snoops            0                       # Number of snoops hitting in the snoop filter with a single holder of the requested data.
system.membus.snoop_filter.tot_requests          9353                       # Total number of requests made to the snoop filter.
system.membus.snoop_filter.tot_snoops               0                       # Total number of snoops made to the snoop filter.
system.tol2bus.snoop_filter.hit_multi_requests           47                       # Number of requests hitting in the snoop filter with multiple (>1) holders of the requested data.
system.tol2bus.snoop_filter.hit_multi_snoops            0                       # Number of snoops hitting in the snoop filter with multiple (>1) holders of the requested data.
system.tol2bus.snoop_filter.hit_single_requests         8488                       # Number of requests hitting in the snoop filter with a single holder of the requested data.
system.tol2bus.snoop_filter.hit_single_snoops            0                       # Number of snoops hitting in the snoop filter with a single holder of the requested data.
system.tol2bus.snoop_filter.tot_requests        19677                       # Total number of requests made to the snoop filter.
system.tol2bus.snoop_filter.tot_snoops              0                       # Total number of snoops made to the snoop filter.
system.membus.pwrStateResidencyTicks::UNDEFINED    774160500                       # Cumulative time (in ticks) in various power states
system.membus.trans_dist::ReadResp               1071                       # Transaction distribution
system.membus.trans_dist::ReadExReq              8282                       # Transaction distribution
system.membus.trans_dist::ReadExResp             8281                       # Transaction distribution
system.membus.trans_dist::ReadSharedReq          1071                       # Transaction distribution
system.membus.pkt_count_system.l2.mem_side::system.mem_ctrls.port        18705                       # Packet count per connected master and slave (bytes)
system.membus.pkt_count::total                  18705                       # Packet count per connected master and slave (bytes)
system.membus.pkt_size_system.l2.mem_side::system.mem_ctrls.port       598528                       # Cumulative packet size per connected master and slave (bytes)
system.membus.pkt_size::total                  598528                       # Cumulative packet size per connected master and slave (bytes)
system.membus.snoops                                0                       # Total snoops (count)
system.membus.snoopTraffic                          0                       # Total snoop traffic (bytes)
system.membus.snoop_fanout::samples              9353                       # Request fanout histogram
system.membus.snoop_fanout::mean                    0                       # Request fanout histogram
system.membus.snoop_fanout::stdev                   0                       # Request fanout histogram
system.membus.snoop_fanout::underflows              0      0.00%      0.00% # Request fanout histogram
system.membus.snoop_fanout::0                    9353    100.00%    100.00% # Request fanout histogram
system.membus.snoop_fanout::1                       0      0.00%    100.00% # Request fanout histogram
system.membus.snoop_fanout::overflows               0      0.00%    100.00% # Request fanout histogram
system.membus.snoop_fanout::min_value               0                       # Request fanout histogram
system.membus.snoop_fanout::max_value               0                       # Request fanout histogram
system.membus.snoop_fanout::total                9353                       # Request fanout histogram
system.membus.respLayer1.occupancy           49495750                       # Layer occupancy (ticks)
system.membus.respLayer1.utilization              6.4                       # Layer utilization (%)
system.membus.reqLayer0.occupancy             9745500                       # Layer occupancy (ticks)
system.membus.reqLayer0.utilization               1.3                       # Layer utilization (%)
system.voltage_domain.voltage                       1                       # Voltage in Volts
system.clk_domain.clock                          1000                       # Clock period in ticks
system.cpu0.pwrStateResidencyTicks::ON      774160500                       # Cumulative time (in ticks) in various power states
system.cpu0.icache.pwrStateResidencyTicks::UNDEFINED    774160500                       # Cumulative time (in ticks) in various power states
system.cpu0.icache.demand_hits::.cpu0.inst       291222                       # number of demand (read+write) hits
system.cpu0.icache.demand_hits::total          291222                       # number of demand (read+write) hits
system.cpu0.icache.overall_hits::.cpu0.inst       291222                       # number of overall hits
system.cpu0.icache.overall_hits::total         291222                       # number of overall hits
system.cpu0.icache.demand_misses::.cpu0.inst         2230                       # number of demand (read+write) misses
system.cpu0.icache.demand_misses::total          2230                       # number of demand (read+write) misses
system.cpu0.icache.overall_misses::.cpu0.inst         2230                       # number of overall misses
system.cpu0.icache.overall_misses::total         2230                       # number of overall misses
system.cpu0.icache.demand_miss_latency::.cpu0.inst     60917500                       # number of demand (read+write) miss cycles
system.cpu0.icache.demand_miss_latency::total     60917500                       # number of demand (read+write) miss cycles
system.cpu0.icache.overall_miss_latency::.cpu0.inst     60917500                       # number of overall miss cycles
system.cpu0.icache.overall_miss_latency::total     60917500                       # number of overall miss cycles
system.cpu0.icache.demand_accesses::.cpu0.inst       293452                       # number of demand (read+write) accesses
system.cpu0.icache.demand_accesses::total       293452                       # number of demand (read+write) accesses
system.cpu0.icache.overall_accesses::.cpu0.inst       293452                       # number of overall (read+write) accesses
system.cpu0.icache.overall_accesses::total       293452                       # number of overall (read+write) accesses
system.cpu0.icache.demand_miss_rate::.cpu0.inst     0.007599                       # miss rate for demand accesses
system.cpu0.icache.demand_miss_rate::total     0.007599                       # miss rate for demand accesses
system.cpu0.icache.overall_miss_rate::.cpu0.inst     0.007599                       # miss rate for overall accesses
system.cpu0.icache.overall_miss_rate::total     0.007599                       # miss rate for overall accesses
system.cpu0.icache.demand_avg_miss_latency::.cpu0.inst 27317.264574                       # average overall miss latency
system.cpu0.icache.demand_avg_miss_latency::total 27317.264574                       # average overall miss latency
system.cpu0.icache.overall_avg_miss_latency::.cpu0.inst 27317.264574                       # average overall miss latency
system.cpu0.icache.overall_avg_miss_latency::total 27317.264574                       # average overall miss latency
system.cpu0.icache.blocked_cycles::no_mshrs            0                       # number of cycles access was blocked
system.cpu0.icache.blocked_cycles::no_targets            0                       # number of cycles access was blocked
system.cpu0.icache.blocked::no_mshrs                0                       # number of cycles access was blocked
system.cpu0.icache.blocked::no_targets              0                       # number of cycles access was blocked
system.cpu0.icache.avg_blocked_cycles::no_mshrs          nan                       # average number of cycles each access was blocked
system.cpu0.icache.avg_blocked_cycles::no_targets          nan                       # average number of cycles each access was blocked
system.cpu0.icache.writebacks::.writebacks         1884                       # number of writebacks
system.cpu0.icache.writebacks::total             1884                       # number of writebacks
system.cpu0.icache.demand_mshr_misses::.cpu0.inst         2230                       # number of demand (read+write) MSHR misses
system.cpu0.icache.demand_mshr_misses::total         2230                       # number of demand (read+write) MSHR misses
system.cpu0.icache.overall_mshr_misses::.cpu0.inst         2230                       # number of overall MSHR misses
system.cpu0.icache.overall_mshr_misses::total         2230                       # number of overall MSHR misses
system.cpu0.icache.demand_mshr_miss_latency::.cpu0.inst     58687500                       # number of demand (read+write) MSHR miss cycles
system.cpu0.icache.demand_mshr_miss_latency::total     58687500                       # number of demand (read+write) MSHR miss cycles
system.cpu0.icache.overall_mshr_miss_latency::.cpu0.inst     58687500                       # number of overall MSHR miss cycles
system.cpu0.icache.overall_mshr_miss_latency::total     58687500                       # number of overall MSHR miss cycles
system.cpu0.icache.demand_mshr_miss_rate::.cpu0.inst     0.007599                       # mshr miss rate for demand accesses
system.cpu0.icache.demand_mshr_miss_rate::total     0.007599                       # mshr miss rate for demand accesses
system.cpu0.icache.overall_mshr_miss_rate::.cpu0.inst     0.007599                       # mshr miss rate for overall accesses
system.cpu0.icache.overall_mshr_miss_rate::total     0.007599                       # mshr miss rate for overall accesses
system.cpu0.icache.demand_avg_mshr_miss_latency::.cpu0.inst 26317.264574                       # average overall mshr miss latency
system.cpu0.icache.demand_avg_mshr_miss_latency::total 26317.264574                       # average overall mshr miss latency
system.cpu0.icache.overall_avg_mshr_miss_latency::.cpu0.inst 26317.264574                       # average overall mshr miss latency
system.cpu0.icache.overall_avg_mshr_miss_latency::total 26317.264574                       # average overall mshr miss latency
system.cpu0.icache.replacements                  1884                       # number of replacements
system.cpu0.icache.ReadReq_hits::.cpu0.inst       291222                       # number of ReadReq hits
system.cpu0.icache.ReadReq_hits::total         291222                       # number of ReadReq hits
system.cpu0.icache.ReadReq_misses::.cpu0.inst         2230                       # number of ReadReq misses
system.cpu0.icache.ReadReq_misses::total         2230                       # number of ReadReq misses
system.cpu0.icache.ReadReq_miss_latency::.cpu0.inst     60917500                       # number of ReadReq miss cycles
system.cpu0.icache.ReadReq_miss_latency::total     60917500                       # number of ReadReq miss cycles
system.cpu0.icache.ReadReq_accesses::.cpu0.inst       293452                       # number of ReadReq accesses(hits+misses)
system.cpu0.icache.ReadReq_accesses::total       293452                       # number of ReadReq accesses(hits+misses)
system.cpu0.icache.ReadReq_miss_rate::.cpu0.inst     0.007599                       # miss rate for ReadReq accesses
system.cpu0.icache.ReadReq_miss_rate::total     0.007599                       # miss rate for ReadReq accesses
system.cpu0.icache.ReadReq_avg_miss_latency::.cpu0.inst 27317.264574                       # average ReadReq miss latency
system.cpu0.icache.ReadReq_avg_miss_latency::total 27317.264574                       # average ReadReq miss latency
system.cpu0.icache.ReadReq_mshr_misses::.cpu0.inst         2230                       # number of ReadReq MSHR misses
system.cpu0.icache.ReadReq_mshr_misses::total         2230                       # number of ReadReq MSHR misses
system.cpu0.icache.ReadReq_mshr_miss_latency::.cpu0.inst     58687500                       # number of ReadReq MSHR miss cycles
system.cpu0.icache.ReadReq_mshr_miss_latency::total     58687500                       # number of ReadReq MSHR miss cycles
system.cpu0.icache.ReadReq_mshr_miss_rate::.cpu0.inst     0.007599                       # mshr miss rate for ReadReq accesses
system.cpu0.icache.ReadReq_mshr_miss_rate::total     0.007599                       # mshr miss rate for ReadReq accesses
system.cpu0.icache.ReadReq_avg_mshr_miss_latency::.cpu0.inst 26317.264574                       # average ReadReq mshr miss latency
system.cpu0.icache.ReadReq_avg_mshr_miss_latency::total 26317.264574                       # average ReadReq mshr miss latency
system.cpu0.icache.tags.pwrStateResidencyTicks::UNDEFINED    774160500                       # Cumulative time (in ticks) in various power states
system.cpu0.icache.tags.tagsinuse          336.678171                       # Cycle average of tags in use
system.cpu0.icache.tags.total_refs             293452                       # Total number of references to valid blocks.
system.cpu0.icache.tags.sampled_refs             2230                       # Sample count of references to valid blocks.
system.cpu0.icache.tags.avg_refs           131.592825                       # Average number of references to valid blocks.
system.cpu0.icache.tags.warmup_cycle            87500                       # Cycle when the warmup percentage was hit.
system.cpu0.icache.tags.occ_blocks::.cpu0.inst   336.678171                       # Average occupied blocks per requestor
system.cpu0.icache.tags.occ_percent::.cpu0.inst     0.657575                       # Average percentage of cache occupancy
system.cpu0.icache.tags.occ_percent::total     0.657575                       # Average percentage of cache occupancy
system.cpu0.icache.tags.occ_task_id_blocks::1024          346                       # Occupied blocks per task id
system.cpu0.icache.tags.age_task_id_blocks_1024::0            2                       # Occupied blocks per task id
system.cpu0.icache.tags.age_task_id_blocks_1024::2          344                       # Occupied blocks per task id
system.cpu0.icache.tags.occ_task_id_percent::1024     0.675781                       # Percentage of cache occupancy per task id
system.cpu0.icache.tags.tag_accesses           589134                       # Number of tag accesses
system.cpu0.icache.tags.data_accesses          589134                       # Number of data accesses
system.cpu0.dtb.walker.pwrStateResidencyTicks::UNDEFINED    774160500                       # Cumulative time (in ticks) in various power states
system.cpu0.dtb.stage2_mmu.stage2_tlb.walker.pwrStateResidencyTicks::UNDEFINED    774160500                       # Cumulative time (in ticks) in various power states
system.cpu0.dcache.pwrStateResidencyTicks::UNDEFINED    774160500                       # Cumulative time (in ticks) in various power states
system.cpu0.dcache.demand_hits::.cpu0.data       377398                       # number of demand (read+write) hits
system.cpu0.dcache.demand_hits::total          377398                       # number of demand (read+write) hits
system.cpu0.dcache.overall_hits::.cpu0.data       377420                       # number of overall hits
system.cpu0.dcache.overall_hits::total         377420                       # number of overall hits
system.cpu0.dcache.demand_misses::.cpu0.data         3734                       # number of demand (read+write) misses
system.cpu0.dcache.demand_misses::total          3734                       # number of demand (read+write) misses
system.cpu0.dcache.overall_misses::.cpu0.data         3748                       # number of overall misses
system.cpu0.dcache.overall_misses::total         3748                       # number of overall misses
system.cpu0.dcache.demand_miss_latency::.cpu0.data    303534500                       # number of demand (read+write) miss cycles
system.cpu0.dcache.demand_miss_latency::total    303534500                       # number of demand (read+write) miss cycles
system.cpu0.dcache.overall_miss_latency::.cpu0.data    303534500                       # number of overall miss cycles
system.cpu0.dcache.overall_miss_latency::total    303534500                       # number of overall miss cycles
system.cpu0.dcache.demand_accesses::.cpu0.data       381132                       # number of demand (read+write) accesses
system.cpu0.dcache.demand_accesses::total       381132                       # number of demand (read+write) accesses
system.cpu0.dcache.overall_accesses::.cpu0.data       381168                       # number of overall (read+write) accesses
system.cpu0.dcache.overall_accesses::total       381168                       # number of overall (read+write) accesses
system.cpu0.dcache.demand_miss_rate::.cpu0.data     0.009797                       # miss rate for demand accesses
system.cpu0.dcache.demand_miss_rate::total     0.009797                       # miss rate for demand accesses
system.cpu0.dcache.overall_miss_rate::.cpu0.data     0.009833                       # miss rate for overall accesses
system.cpu0.dcache.overall_miss_rate::total     0.009833                       # miss rate for overall accesses
system.cpu0.dcache.demand_avg_miss_latency::.cpu0.data 81289.367970                       # average overall miss latency
system.cpu0.dcache.demand_avg_miss_latency::total 81289.367970                       # average overall miss latency
system.cpu0.dcache.overall_avg_miss_latency::.cpu0.data 80985.725720                       # average overall miss latency
system.cpu0.dcache.overall_avg_miss_latency::total 80985.725720                       # average overall miss latency
system.cpu0.dcache.blocked_cycles::no_mshrs            0                       # number of cycles access was blocked
system.cpu0.dcache.blocked_cycles::no_targets            0                       # number of cycles access was blocked
system.cpu0.dcache.blocked::no_mshrs                0                       # number of cycles access was blocked
system.cpu0.dcache.blocked::no_targets              0                       # number of cycles access was blocked
system.cpu0.dcache.avg_blocked_cycles::no_mshrs          nan                       # average number of cycles each access was blocked
system.cpu0.dcache.avg_blocked_cycles::no_targets          nan                       # average number of cycles each access was blocked
system.cpu0.dcache.writebacks::.writebacks          959                       # number of writebacks
system.cpu0.dcache.writebacks::total              959                       # number of writebacks
system.cpu0.dcache.demand_mshr_hits::.cpu0.data         1637                       # number of demand (read+write) MSHR hits
system.cpu0.dcache.demand_mshr_hits::total         1637                       # number of demand (read+write) MSHR hits
system.cpu0.dcache.overall_mshr_hits::.cpu0.data         1637                       # number of overall MSHR hits
system.cpu0.dcache.overall_mshr_hits::total         1637                       # number of overall MSHR hits
system.cpu0.dcache.demand_mshr_misses::.cpu0.data         2097                       # number of demand (read+write) MSHR misses
system.cpu0.dcache.demand_mshr_misses::total         2097                       # number of demand (read+write) MSHR misses
system.cpu0.dcache.overall_mshr_misses::.cpu0.data         2107                       # number of overall MSHR misses
system.cpu0.dcache.overall_mshr_misses::total         2107                       # number of overall MSHR misses
system.cpu0.dcache.demand_mshr_miss_latency::.cpu0.data    170551500                       # number of demand (read+write) MSHR miss cycles
system.cpu0.dcache.demand_mshr_miss_latency::total    170551500                       # number of demand (read+write) MSHR miss cycles
system.cpu0.dcache.overall_mshr_miss_latency::.cpu0.data    171722500                       # number of overall MSHR miss cycles
system.cpu0.dcache.overall_mshr_miss_latency::total    171722500                       # number of overall MSHR miss cycles
system.cpu0.dcache.demand_mshr_miss_rate::.cpu0.data     0.005502                       # mshr miss rate for demand accesses
system.cpu0.dcache.demand_mshr_miss_rate::total     0.005502                       # mshr miss rate for demand accesses
system.cpu0.dcache.overall_mshr_miss_rate::.cpu0.data     0.005528                       # mshr miss rate for overall accesses
system.cpu0.dcache.overall_mshr_miss_rate::total     0.005528                       # mshr miss rate for overall accesses
system.cpu0.dcache.demand_avg_mshr_miss_latency::.cpu0.data 81331.187411                       # average overall mshr miss latency
system.cpu0.dcache.demand_avg_mshr_miss_latency::total 81331.187411                       # average overall mshr miss latency
system.cpu0.dcache.overall_avg_mshr_miss_latency::.cpu0.data 81500.949217                       # average overall mshr miss latency
system.cpu0.dcache.overall_avg_mshr_miss_latency::total 81500.949217                       # average overall mshr miss latency
system.cpu0.dcache.replacements                  1085                       # number of replacements
system.cpu0.dcache.ReadReq_hits::.cpu0.data       213059                       # number of ReadReq hits
system.cpu0.dcache.ReadReq_hits::total         213059                       # number of ReadReq hits
system.cpu0.dcache.ReadReq_misses::.cpu0.data          171                       # number of ReadReq misses
system.cpu0.dcache.ReadReq_misses::total          171                       # number of ReadReq misses
system.cpu0.dcache.ReadReq_miss_latency::.cpu0.data     14204000                       # number of ReadReq miss cycles
system.cpu0.dcache.ReadReq_miss_latency::total     14204000                       # number of ReadReq miss cycles
system.cpu0.dcache.ReadReq_accesses::.cpu0.data       213230                       # number of ReadReq accesses(hits+misses)
system.cpu0.dcache.ReadReq_accesses::total       213230                       # number of ReadReq accesses(hits+misses)
system.cpu0.dcache.ReadReq_miss_rate::.cpu0.data     0.000802                       # miss rate for ReadReq accesses
system.cpu0.dcache.ReadReq_miss_rate::total     0.000802                       # miss rate for ReadReq accesses
system.cpu0.dcache.ReadReq_avg_miss_latency::.cpu0.data 83064.327485                       # average ReadReq miss latency
system.cpu0.dcache.ReadReq_avg_miss_latency::total 83064.327485                       # average ReadReq miss latency
system.cpu0.dcache.ReadReq_mshr_hits::.cpu0.data           11                       # number of ReadReq MSHR hits
system.cpu0.dcache.ReadReq_mshr_hits::total           11                       # number of ReadReq MSHR hits
system.cpu0.dcache.ReadReq_mshr_misses::.cpu0.data          160                       # number of ReadReq MSHR misses
system.cpu0.dcache.ReadReq_mshr_misses::total          160                       # number of ReadReq MSHR misses
system.cpu0.dcache.ReadReq_mshr_miss_latency::.cpu0.data     12935500                       # number of ReadReq MSHR miss cycles
system.cpu0.dcache.ReadReq_mshr_miss_latency::total     12935500                       # number of ReadReq MSHR miss cycles
system.cpu0.dcache.ReadReq_mshr_miss_rate::.cpu0.data     0.000750                       # mshr miss rate for ReadReq accesses
system.cpu0.dcache.ReadReq_mshr_miss_rate::total     0.000750                       # mshr miss rate for ReadReq accesses
system.cpu0.dcache.ReadReq_avg_mshr_miss_latency::.cpu0.data 80846.875000                       # average ReadReq mshr miss latency
system.cpu0.dcache.ReadReq_avg_mshr_miss_latency::total 80846.875000                       # average ReadReq mshr miss latency
system.cpu0.dcache.WriteReq_hits::.cpu0.data       164339                       # number of WriteReq hits
system.cpu0.dcache.WriteReq_hits::total        164339                       # number of WriteReq hits
system.cpu0.dcache.WriteReq_misses::.cpu0.data         3563                       # number of WriteReq misses
system.cpu0.dcache.WriteReq_misses::total         3563                       # number of WriteReq misses
system.cpu0.dcache.WriteReq_miss_latency::.cpu0.data    289330500                       # number of WriteReq miss cycles
system.cpu0.dcache.WriteReq_miss_latency::total    289330500                       # number of WriteReq miss cycles
system.cpu0.dcache.WriteReq_accesses::.cpu0.data       167902                       # number of WriteReq accesses(hits+misses)
system.cpu0.dcache.WriteReq_accesses::total       167902                       # number of WriteReq accesses(hits+misses)
system.cpu0.dcache.WriteReq_miss_rate::.cpu0.data     0.021221                       # miss rate for WriteReq accesses
system.cpu0.dcache.WriteReq_miss_rate::total     0.021221                       # miss rate for WriteReq accesses
system.cpu0.dcache.WriteReq_avg_miss_latency::.cpu0.data 81204.181869                       # average WriteReq miss latency
system.cpu0.dcache.WriteReq_avg_miss_latency::total 81204.181869                       # average WriteReq miss latency
system.cpu0.dcache.WriteReq_mshr_hits::.cpu0.data         1626                       # number of WriteReq MSHR hits
system.cpu0.dcache.WriteReq_mshr_hits::total         1626                       # number of WriteReq MSHR hits
system.cpu0.dcache.WriteReq_mshr_misses::.cpu0.data         1937                       # number of WriteReq MSHR misses
system.cpu0.dcache.WriteReq_mshr_misses::total         1937                       # number of WriteReq MSHR misses
system.cpu0.dcache.WriteReq_mshr_miss_latency::.cpu0.data    157616000                       # number of WriteReq MSHR miss cycles
system.cpu0.dcache.WriteReq_mshr_miss_latency::total    157616000                       # number of WriteReq MSHR miss cycles
system.cpu0.dcache.WriteReq_mshr_miss_rate::.cpu0.data     0.011536                       # mshr miss rate for WriteReq accesses
system.cpu0.dcache.WriteReq_mshr_miss_rate::total     0.011536                       # mshr miss rate for WriteReq accesses
system.cpu0.dcache.WriteReq_avg_mshr_miss_latency::.cpu0.data 81371.192566                       # average WriteReq mshr miss latency
system.cpu0.dcache.WriteReq_avg_mshr_miss_latency::total 81371.192566                       # average WriteReq mshr miss latency
system.cpu0.dcache.SoftPFReq_hits::.cpu0.data           22                       # number of SoftPFReq hits
system.cpu0.dcache.SoftPFReq_hits::total           22                       # number of SoftPFReq hits
system.cpu0.dcache.SoftPFReq_misses::.cpu0.data           14                       # number of SoftPFReq misses
system.cpu0.dcache.SoftPFReq_misses::total           14                       # number of SoftPFReq misses
system.cpu0.dcache.SoftPFReq_accesses::.cpu0.data           36                       # number of SoftPFReq accesses(hits+misses)
system.cpu0.dcache.SoftPFReq_accesses::total           36                       # number of SoftPFReq accesses(hits+misses)
system.cpu0.dcache.SoftPFReq_miss_rate::.cpu0.data     0.388889                       # miss rate for SoftPFReq accesses
system.cpu0.dcache.SoftPFReq_miss_rate::total     0.388889                       # miss rate for SoftPFReq accesses
system.cpu0.dcache.SoftPFReq_mshr_misses::.cpu0.data           10                       # number of SoftPFReq MSHR misses
system.cpu0.dcache.SoftPFReq_mshr_misses::total           10                       # number of SoftPFReq MSHR misses
system.cpu0.dcache.SoftPFReq_mshr_miss_latency::.cpu0.data      1171000                       # number of SoftPFReq MSHR miss cycles
system.cpu0.dcache.SoftPFReq_mshr_miss_latency::total      1171000                       # number of SoftPFReq MSHR miss cycles
system.cpu0.dcache.SoftPFReq_mshr_miss_rate::.cpu0.data     0.277778                       # mshr miss rate for SoftPFReq accesses
system.cpu0.dcache.SoftPFReq_mshr_miss_rate::total     0.277778                       # mshr miss rate for SoftPFReq accesses
system.cpu0.dcache.SoftPFReq_avg_mshr_miss_latency::.cpu0.data       117100                       # average SoftPFReq mshr miss latency
system.cpu0.dcache.SoftPFReq_avg_mshr_miss_latency::total       117100                       # average SoftPFReq mshr miss latency
system.cpu0.dcache.LoadLockedReq_hits::.cpu0.data         1195                       # number of LoadLockedReq hits
system.cpu0.dcache.LoadLockedReq_hits::total         1195                       # number of LoadLockedReq hits
system.cpu0.dcache.LoadLockedReq_misses::.cpu0.data            2                       # number of LoadLockedReq misses
system.cpu0.dcache.LoadLockedReq_misses::total            2                       # number of LoadLockedReq misses
system.cpu0.dcache.LoadLockedReq_miss_latency::.cpu0.data       173000                       # number of LoadLockedReq miss cycles
system.cpu0.dcache.LoadLockedReq_miss_latency::total       173000                       # number of LoadLockedReq miss cycles
system.cpu0.dcache.LoadLockedReq_accesses::.cpu0.data         1197                       # number of LoadLockedReq accesses(hits+misses)
system.cpu0.dcache.LoadLockedReq_accesses::total         1197                       # number of LoadLockedReq accesses(hits+misses)
system.cpu0.dcache.LoadLockedReq_miss_rate::.cpu0.data     0.001671                       # miss rate for LoadLockedReq accesses
system.cpu0.dcache.LoadLockedReq_miss_rate::total     0.001671                       # miss rate for LoadLockedReq accesses
system.cpu0.dcache.LoadLockedReq_avg_miss_latency::.cpu0.data        86500                       # average LoadLockedReq miss latency
system.cpu0.dcache.LoadLockedReq_avg_miss_latency::total        86500                       # average LoadLockedReq miss latency
system.cpu0.dcache.LoadLockedReq_mshr_misses::.cpu0.data            2                       # number of LoadLockedReq MSHR misses
system.cpu0.dcache.LoadLockedReq_mshr_misses::total            2                       # number of LoadLockedReq MSHR misses
system.cpu0.dcache.LoadLockedReq_mshr_miss_latency::.cpu0.data       171000                       # number of LoadLockedReq MSHR miss cycles
system.cpu0.dcache.LoadLockedReq_mshr_miss_latency::total       171000                       # number of LoadLockedReq MSHR miss cycles
system.cpu0.dcache.LoadLockedReq_mshr_miss_rate::.cpu0.data     0.001671                       # mshr miss rate for LoadLockedReq accesses
[...]
system.mem_ctrls.wrQLenPdf::31                      0                       # What write queue length does an incoming req see
system.mem_ctrls.wrQLenPdf::32                      0                       # What write queue length does an incoming req see
system.mem_ctrls.wrQLenPdf::33                      0                       # What write queue length does an incoming req see
system.mem_ctrls.wrQLenPdf::34                      0                       # What write queue length does an incoming req see
system.mem_ctrls.wrQLenPdf::35                      0                       # What write queue length does an incoming req see
system.mem_ctrls.wrQLenPdf::36                      0                       # What write queue length does an incoming req see
system.mem_ctrls.wrQLenPdf::37                      0                       # What write queue length does an incoming req see
system.mem_ctrls.wrQLenPdf::38                      0                       # What write queue length does an incoming req see
system.mem_ctrls.wrQLenPdf::39                      0                       # What write queue length does an incoming req see
system.mem_ctrls.wrQLenPdf::40                      0                       # What write queue length does an incoming req see
system.mem_ctrls.wrQLenPdf::41                      0                       # What write queue length does an incoming req see
system.mem_ctrls.wrQLenPdf::42                      0                       # What write queue length does an incoming req see
system.mem_ctrls.wrQLenPdf::43                      0                       # What write queue length does an incoming req see
system.mem_ctrls.wrQLenPdf::44                      0                       # What write queue length does an incoming req see
system.mem_ctrls.wrQLenPdf::45                      0                       # What write queue length does an incoming req see
system.mem_ctrls.wrQLenPdf::46                      0                       # What write queue length does an incoming req see
system.mem_ctrls.wrQLenPdf::47                      0                       # What write queue length does an incoming req see
system.mem_ctrls.wrQLenPdf::48                      0                       # What write queue length does an incoming req see
system.mem_ctrls.wrQLenPdf::49                      0                       # What write queue length does an incoming req see
system.mem_ctrls.wrQLenPdf::50                      0                       # What write queue length does an incoming req see
system.mem_ctrls.wrQLenPdf::51                      0                       # What write queue length does an incoming req see
system.mem_ctrls.wrQLenPdf::52                      0                       # What write queue length does an incoming req see
system.mem_ctrls.wrQLenPdf::53                      0                       # What write queue length does an incoming req see
system.mem_ctrls.wrQLenPdf::54                      0                       # What write queue length does an incoming req see
system.mem_ctrls.wrQLenPdf::55                      0                       # What write queue length does an incoming req see
system.mem_ctrls.wrQLenPdf::56                      0                       # What write queue length does an incoming req see
system.mem_ctrls.wrQLenPdf::57                      0                       # What write queue length does an incoming req see
system.mem_ctrls.wrQLenPdf::58                      0                       # What write queue length does an incoming req see
system.mem_ctrls.wrQLenPdf::59                      0                       # What write queue length does an incoming req see
system.mem_ctrls.wrQLenPdf::60                      0                       # What write queue length does an incoming req see
system.mem_ctrls.wrQLenPdf::61                      0                       # What write queue length does an incoming req see
system.mem_ctrls.wrQLenPdf::62                      0                       # What write queue length does an incoming req see
system.mem_ctrls.wrQLenPdf::63                      0                       # What write queue length does an incoming req see
system.mem_ctrls.bytesPerActivate::samples         1342                       # Bytes accessed per row activation
system.mem_ctrls.bytesPerActivate::mean    444.995529                       # Bytes accessed per row activation
system.mem_ctrls.bytesPerActivate::gmean   276.450375                       # Bytes accessed per row activation
system.mem_ctrls.bytesPerActivate::stdev   368.129583                       # Bytes accessed per row activation
system.mem_ctrls.bytesPerActivate::0-127          367     27.35%     27.35% # Bytes accessed per row activation
system.mem_ctrls.bytesPerActivate::128-255          168     12.52%     39.87% # Bytes accessed per row activation
system.mem_ctrls.bytesPerActivate::256-383          176     13.11%     52.98% # Bytes accessed per row activation
system.mem_ctrls.bytesPerActivate::384-511          104      7.75%     60.73% # Bytes accessed per row activation
system.mem_ctrls.bytesPerActivate::512-639           92      6.86%     67.59% # Bytes accessed per row activation
system.mem_ctrls.bytesPerActivate::640-767          109      8.12%     75.71% # Bytes accessed per row activation
system.mem_ctrls.bytesPerActivate::768-895           24      1.79%     77.50% # Bytes accessed per row activation
system.mem_ctrls.bytesPerActivate::896-1023            9      0.67%     78.17% # Bytes accessed per row activation
system.mem_ctrls.bytesPerActivate::1024-1151          293     21.83%    100.00% # Bytes accessed per row activation
system.mem_ctrls.bytesPerActivate::total         1342                       # Bytes accessed per row activation
system.mem_ctrls.bytesReadDRAM                 598592                       # Total number of bytes read from DRAM
system.mem_ctrls.bytesReadWrQ                       0                       # Total number of bytes read from write queue
system.mem_ctrls.bytesWritten                       0                       # Total number of bytes written to DRAM
system.mem_ctrls.bytesReadSys                  598592                       # Total read bytes from the system interface side
system.mem_ctrls.bytesWrittenSys                    0                       # Total written bytes from the system interface side
system.mem_ctrls.avgRdBW                       773.21                       # Average DRAM read bandwidth in MiByte/s
system.mem_ctrls.avgWrBW                         0.00                       # Average achieved write bandwidth in MiByte/s
system.mem_ctrls.avgRdBWSys                    773.21                       # Average system read bandwidth in MiByte/s
system.mem_ctrls.avgWrBWSys                      0.00                       # Average system write bandwidth in MiByte/s
system.mem_ctrls.peakBW                      12800.00                       # Theoretical peak bandwidth in MiByte/s
system.mem_ctrls.busUtil                         6.04                       # Data bus utilization in percentage
system.mem_ctrls.busUtilRead                     6.04                       # Data bus utilization in percentage for reads
system.mem_ctrls.busUtilWrite                    0.00                       # Data bus utilization in percentage for writes
system.mem_ctrls.totGap                     774147000                       # Total gap between requests
system.mem_ctrls.avgGap                      82769.91                       # Average gap between requests
system.mem_ctrls.masterReadBytes::.cpu0.inst        29248                       # Per-master bytes read from memory
system.mem_ctrls.masterReadBytes::.cpu0.data       133760                       # Per-master bytes read from memory
system.mem_ctrls.masterReadBytes::.cpu1.inst        24832                       # Per-master bytes read from memory
system.mem_ctrls.masterReadBytes::.cpu1.data       410752                       # Per-master bytes read from memory
system.mem_ctrls.masterReadRate::.cpu0.inst 37780279.412344075739                       # Per-master bytes read from memory rate (Bytes/sec)
system.mem_ctrls.masterReadRate::.cpu0.data 172780708.909844905138                       # Per-master bytes read from memory rate (Bytes/sec)
system.mem_ctrls.masterReadRate::.cpu1.inst 32076035.912449676543                       # Per-master bytes read from memory rate (Bytes/sec)
system.mem_ctrls.masterReadRate::.cpu1.data 530577315.685829997063                       # Per-master bytes read from memory rate (Bytes/sec)
system.mem_ctrls.masterReadAccesses::.cpu0.inst          457                       # Per-master read serviced memory accesses
system.mem_ctrls.masterReadAccesses::.cpu0.data         2090                       # Per-master read serviced memory accesses
system.mem_ctrls.masterReadAccesses::.cpu1.inst          388                       # Per-master read serviced memory accesses
system.mem_ctrls.masterReadAccesses::.cpu1.data         6418                       # Per-master read serviced memory accesses
system.mem_ctrls.masterReadTotalLat::.cpu0.inst     13407750                       # Per-master read total memory access latency
system.mem_ctrls.masterReadTotalLat::.cpu0.data     61599250                       # Per-master read total memory access latency
system.mem_ctrls.masterReadTotalLat::.cpu1.inst     11944000                       # Per-master read total memory access latency
system.mem_ctrls.masterReadTotalLat::.cpu1.data    155823750                       # Per-master read total memory access latency
system.mem_ctrls.masterReadAvgLat::.cpu0.inst     29338.62                       # Per-master read average memory access latency
system.mem_ctrls.masterReadAvgLat::.cpu0.data     29473.33                       # Per-master read average memory access latency
system.mem_ctrls.masterReadAvgLat::.cpu1.inst     30783.51                       # Per-master read average memory access latency
system.mem_ctrls.masterReadAvgLat::.cpu1.data     24279.18                       # Per-master read average memory access latency
system.mem_ctrls.pageHitRate                    85.61                       # Row buffer hit rate, read and write combined
system.mem_ctrls.rank1.actEnergy              4184040                       # Energy for activate commands per rank (pJ)
system.mem_ctrls.rank1.preEnergy              2216280                       # Energy for precharge commands per rank (pJ)
system.mem_ctrls.rank1.readEnergy            32337060                       # Energy for read commands per rank (pJ)
system.mem_ctrls.rank1.writeEnergy                  0                       # Energy for write commands per rank (pJ)
system.mem_ctrls.rank1.refreshEnergy     60849360.000000                       # Energy for refresh commands per rank (pJ)
system.mem_ctrls.rank1.actBackEnergy        340899900                       # Energy for active background per rank (pJ)
system.mem_ctrls.rank1.preBackEnergy         10204320                       # Energy for precharge background per rank (pJ)
system.mem_ctrls.rank1.actPowerDownEnergy            0                       # Energy for active power-down per rank (pJ)
system.mem_ctrls.rank1.prePowerDownEnergy            0                       # Energy for precharge power-down per rank (pJ)
system.mem_ctrls.rank1.selfRefreshEnergy            0                       # Energy for self refresh per rank (pJ)
system.mem_ctrls.rank1.totalEnergy          450690960                       # Total energy per rank (pJ)
system.mem_ctrls.rank1.averagePower        582.167341                       # Core power per rank (mW)
system.mem_ctrls.rank1.totalIdleTime                0                       # Total Idle time Per DRAM Rank
system.mem_ctrls.rank1.memoryStateTime::IDLE     23596750                       # Time in different power states
system.mem_ctrls.rank1.memoryStateTime::REF     25740000                       # Time in different power states
system.mem_ctrls.rank1.memoryStateTime::SREF            0                       # Time in different power states
system.mem_ctrls.rank1.memoryStateTime::PRE_PDN            0                       # Time in different power states
system.mem_ctrls.rank1.memoryStateTime::ACT    724823750                       # Time in different power states
system.mem_ctrls.rank1.memoryStateTime::ACT_PDN            0                       # Time in different power states
system.mem_ctrls.rank0.actEnergy              5426400                       # Energy for activate commands per rank (pJ)
system.mem_ctrls.rank0.preEnergy              2876610                       # Energy for precharge commands per rank (pJ)
system.mem_ctrls.rank0.readEnergy            34443360                       # Energy for read commands per rank (pJ)
system.mem_ctrls.rank0.writeEnergy                  0                       # Energy for write commands per rank (pJ)
system.mem_ctrls.rank0.refreshEnergy     60849360.000000                       # Energy for refresh commands per rank (pJ)
system.mem_ctrls.rank0.actBackEnergy        344009820                       # Energy for active background per rank (pJ)
system.mem_ctrls.rank0.preBackEnergy          7585440                       # Energy for precharge background per rank (pJ)
system.mem_ctrls.rank0.actPowerDownEnergy            0                       # Energy for active power-down per rank (pJ)
system.mem_ctrls.rank0.prePowerDownEnergy            0                       # Energy for precharge power-down per rank (pJ)
system.mem_ctrls.rank0.selfRefreshEnergy            0                       # Energy for self refresh per rank (pJ)
system.mem_ctrls.rank0.totalEnergy          455190990                       # Total energy per rank (pJ)
system.mem_ctrls.rank0.averagePower        587.980128                       # Core power per rank (mW)
system.mem_ctrls.rank0.totalIdleTime                0                       # Total Idle time Per DRAM Rank
system.mem_ctrls.rank0.memoryStateTime::IDLE     16572250                       # Time in different power states
system.mem_ctrls.rank0.memoryStateTime::REF     25740000                       # Time in different power states
system.mem_ctrls.rank0.memoryStateTime::SREF            0                       # Time in different power states
system.mem_ctrls.rank0.memoryStateTime::PRE_PDN            0                       # Time in different power states
system.mem_ctrls.rank0.memoryStateTime::ACT    731848250                       # Time in different power states
system.mem_ctrls.rank0.memoryStateTime::ACT_PDN            0                       # Time in different power states
system.cpu_clk_domain.clock                       500                       # Clock period in ticks
system.tol2bus.pwrStateResidencyTicks::UNDEFINED    774160500                       # Cumulative time (in ticks) in various power states
system.tol2bus.trans_dist::ReadResp              2912                       # Transaction distribution
system.tol2bus.trans_dist::WritebackDirty         6299                       # Transaction distribution
system.tol2bus.trans_dist::WritebackClean         1989                       # Transaction distribution
system.tol2bus.trans_dist::CleanEvict             195                       # Transaction distribution
system.tol2bus.trans_dist::ReadExReq             8282                       # Transaction distribution
system.tol2bus.trans_dist::ReadExResp            8281                       # Transaction distribution
system.tol2bus.trans_dist::ReadCleanReq          2651                       # Transaction distribution
system.tol2bus.trans_dist::ReadSharedReq          261                       # Transaction distribution
system.tol2bus.pkt_count_system.cpu0.icache.mem_side::system.l2.cpu_side         6344                       # Packet count per connected master and slave (bytes)
system.tol2bus.pkt_count_system.cpu0.dcache.mem_side::system.l2.cpu_side         5303                       # Packet count per connected master and slave (bytes)
system.tol2bus.pkt_count_system.cpu1.icache.mem_side::system.l2.cpu_side          947                       # Packet count per connected master and slave (bytes)
system.tol2bus.pkt_count_system.cpu1.dcache.mem_side::system.l2.cpu_side        18276                       # Packet count per connected master and slave (bytes)
system.tol2bus.pkt_count::total                 30870                       # Packet count per connected master and slave (bytes)
system.tol2bus.pkt_size_system.cpu0.icache.mem_side::system.l2.cpu_side       263296                       # Cumulative packet size per connected master and slave (bytes)
system.tol2bus.pkt_size_system.cpu0.dcache.mem_side::system.l2.cpu_side       196352                       # Cumulative packet size per connected master and slave (bytes)
system.tol2bus.pkt_size_system.cpu1.icache.mem_side::system.l2.cpu_side        33664                       # Cumulative packet size per connected master and slave (bytes)
system.tol2bus.pkt_size_system.cpu1.dcache.mem_side::system.l2.cpu_side       753472                       # Cumulative packet size per connected master and slave (bytes)
system.tol2bus.pkt_size::total                1246784                       # Cumulative packet size per connected master and slave (bytes)
system.tol2bus.snoops                               0                       # Total snoops (count)
system.tol2bus.snoopTraffic                         0                       # Total snoop traffic (bytes)
system.tol2bus.snoop_fanout::samples            11194                       # Request fanout histogram
system.tol2bus.snoop_fanout::mean            0.004645                       # Request fanout histogram
system.tol2bus.snoop_fanout::stdev           0.068001                       # Request fanout histogram
system.tol2bus.snoop_fanout::underflows             0      0.00%      0.00% # Request fanout histogram
system.tol2bus.snoop_fanout::0                  11142     99.54%     99.54% # Request fanout histogram
system.tol2bus.snoop_fanout::1                     52      0.46%    100.00% # Request fanout histogram
system.tol2bus.snoop_fanout::2                      0      0.00%    100.00% # Request fanout histogram
system.tol2bus.snoop_fanout::3                      0      0.00%    100.00% # Request fanout histogram
system.tol2bus.snoop_fanout::4                      0      0.00%    100.00% # Request fanout histogram
system.tol2bus.snoop_fanout::overflows              0      0.00%    100.00% # Request fanout histogram
system.tol2bus.snoop_fanout::min_value              0                       # Request fanout histogram
system.tol2bus.snoop_fanout::max_value              1                       # Request fanout histogram
system.tol2bus.snoop_fanout::total              11194                       # Request fanout histogram
system.tol2bus.reqLayer0.occupancy           18126500                       # Layer occupancy (ticks)
system.tol2bus.reqLayer0.utilization              2.3                       # Layer utilization (%)
system.tol2bus.respLayer5.occupancy           9652993                       # Layer occupancy (ticks)
system.tol2bus.respLayer5.utilization             1.2                       # Layer utilization (%)
system.tol2bus.respLayer4.occupancy            631500                       # Layer occupancy (ticks)
system.tol2bus.respLayer4.utilization             0.1                       # Layer utilization (%)
system.tol2bus.respLayer1.occupancy           3166494                       # Layer occupancy (ticks)
system.tol2bus.respLayer1.utilization             0.4                       # Layer utilization (%)
system.tol2bus.respLayer0.occupancy           3345499                       # Layer occupancy (ticks)
system.tol2bus.respLayer0.utilization             0.4                       # Layer utilization (%)

---------- End Simulation Statistics   ----------
