
---------- Begin Simulation Statistics ----------
final_tick                                  292723000                       # Number of ticks from beginning of simulation (restored from checkpoints and never reset)
host_inst_rate                                 146299                       # Simulator instruction rate (inst/s)
host_mem_usage                                 718160                       # Number of bytes of host memory used
host_op_rate                                   166520                       # Simulator op (including micro ops) rate (op/s)
host_seconds                                    12.25                       # Real time elapsed on the host
host_tick_rate                               23898097                       # Simulator tick rate (ticks/s)
sim_freq                                 1000000000000                       # Frequency of simulated ticks
sim_insts                                     1791964                       # Number of instructions simulated
sim_ops                                       2039663                       # Number of ops (including micro ops) simulated
sim_seconds                                  0.000293                       # Number of seconds simulated
sim_ticks                                   292723000                       # Number of ticks simulated
system.cpu0.branchPred.BTBCorrect                   0                       # Number of correct BTB predictions (this stat may not work properly.
system.cpu0.branchPred.BTBHitPct            90.600937                       # BTB Hit Percentage
system.cpu0.branchPred.BTBHits                  68478                       # Number of BTB hits
system.cpu0.branchPred.BTBLookups               75582                       # Number of BTB lookups
system.cpu0.branchPred.RASInCorrect                 0                       # Number of incorrect RAS predictions.
system.cpu0.branchPred.condIncorrect             3729                       # Number of conditional branches incorrect
system.cpu0.branchPred.condPredicted           141457                       # Number of conditional branches predicted
system.cpu0.branchPred.indirectHits              2764                       # Number of indirect target hits.
system.cpu0.branchPred.indirectLookups           2924                       # Number of indirect predictor lookups.
system.cpu0.branchPred.indirectMisses             160                       # Number of indirect misses.
system.cpu0.branchPred.lookups                 181961                       # Number of BP lookups
system.cpu0.branchPred.usedRAS                  11916                       # Number of times the RAS was used to get a target.
system.cpu0.branchPredindirectMispredicted           65                       # Number of mispredicted indirect branches.
system.cpu0.cc_regfile_reads                  3175158                       # number of cc regfile reads
system.cpu0.cc_regfile_writes                  524893                       # number of cc regfile writes
system.cpu0.commit.amos                             0                       # Number of atomic instructions committed
system.cpu0.commit.branchMispredicts             2559                       # The number of times a branch was mispredicted
system.cpu0.commit.branches                    161155                       # Number of branches committed
system.cpu0.commit.bw_lim_events                21330                       # number cycles where commit BW limit reached
system.cpu0.commit.commitNonSpecStalls           1934                       # The number of times commit has been forced to stall to communicate backwards
system.cpu0.commit.commitSquashedInsts          32285                       # The number of squashed insts skipped by commit
system.cpu0.commit.committedInsts              791962                       # Number of instructions committed
system.cpu0.commit.committedOps                873044                       # Number of ops (including micro ops) committed
system.cpu0.commit.committed_per_cycle::samples       545815                       # Number of insts commited each cycle
system.cpu0.commit.committed_per_cycle::mean     1.599524                       # Number of insts commited each cycle
system.cpu0.commit.committed_per_cycle::stdev     2.104188                       # Number of insts commited each cycle
system.cpu0.commit.committed_per_cycle::underflows            0      0.00%      0.00% # Number of insts commited each cycle
system.cpu0.commit.committed_per_cycle::0       226864     41.56%     41.56% # Number of insts commited each cycle
system.cpu0.commit.committed_per_cycle::1       129185     23.67%     65.23% # Number of insts commited each cycle
system.cpu0.commit.committed_per_cycle::2        58561     10.73%     75.96% # Number of insts commited each cycle
system.cpu0.commit.committed_per_cycle::3        49222      9.02%     84.98% # Number of insts commited each cycle
system.cpu0.commit.committed_per_cycle::4        24810      4.55%     89.53% # Number of insts commited each cycle
system.cpu0.commit.committed_per_cycle::5        15260      2.80%     92.32% # Number of insts commited each cycle
system.cpu0.commit.committed_per_cycle::6        11190      2.05%     94.37% # Number of insts commited each cycle
system.cpu0.commit.committed_per_cycle::7         9393      1.72%     96.09% # Number of insts commited each cycle
system.cpu0.commit.committed_per_cycle::8        21330      3.91%    100.00% # Number of insts commited each cycle
system.cpu0.commit.committed_per_cycle::overflows            0      0.00%    100.00% # Number of insts commited each cycle
system.cpu0.commit.committed_per_cycle::min_value            0                       # Number of insts commited each cycle
system.cpu0.commit.committed_per_cycle::max_value            8                       # Number of insts commited each cycle
system.cpu0.commit.committed_per_cycle::total       545815                       # Number of insts commited each cycle
system.cpu0.commit.fp_insts                         0                       # Number of committed floating point instructions.
system.cpu0.commit.function_calls                9755                       # Number of function calls committed.
system.cpu0.commit.int_insts                   711815                       # Number of committed integer instructions.
system.cpu0.commit.loads                       171784                       # Number of loads committed
system.cpu0.commit.membars                        956                       # Number of memory barriers committed
system.cpu0.commit.op_class_0::No_OpClass            0      0.00%      0.00% # Class of committed instruction
system.cpu0.commit.op_class_0::IntAlu          557673     63.88%     63.88% # Class of committed instruction
system.cpu0.commit.op_class_0::IntMult           2741      0.31%     64.19% # Class of committed instruction
system.cpu0.commit.op_class_0::IntDiv               0      0.00%     64.19% # Class of committed instruction
system.cpu0.commit.op_class_0::FloatAdd             0      0.00%     64.19% # Class of committed instruction
system.cpu0.commit.op_class_0::FloatCmp             0      0.00%     64.19% # Class of committed instruction
system.cpu0.commit.op_class_0::FloatCvt             0      0.00%     64.19% # Class of committed instruction
system.cpu0.commit.op_class_0::FloatMult            0      0.00%     64.19% # Class of committed instruction
system.cpu0.commit.op_class_0::FloatMultAcc            0      0.00%     64.19% # Class of committed instruction
system.cpu0.commit.op_class_0::FloatDiv             0      0.00%     64.19% # Class of committed instruction
system.cpu0.commit.op_class_0::FloatMisc            0      0.00%     64.19% # Class of committed instruction
system.cpu0.commit.op_class_0::FloatSqrt            0      0.00%     64.19% # Class of committed instruction
system.cpu0.commit.op_class_0::SimdAdd              0      0.00%     64.19% # Class of committed instruction
system.cpu0.commit.op_class_0::SimdAddAcc            0      0.00%     64.19% # Class of committed instruction
system.cpu0.commit.op_class_0::SimdAlu              0      0.00%     64.19% # Class of committed instruction
system.cpu0.commit.op_class_0::SimdCmp              0      0.00%     64.19% # Class of committed instruction
system.cpu0.commit.op_class_0::SimdCvt              0      0.00%     64.19% # Class of committed instruction
system.cpu0.commit.op_class_0::SimdMisc             0      0.00%     64.19% # Class of committed instruction
system.cpu0.commit.op_class_0::SimdMult             0      0.00%     64.19% # Class of committed instruction
system.cpu0.commit.op_class_0::SimdMultAcc            0      0.00%     64.19% # Class of committed instruction
system.cpu0.commit.op_class_0::SimdShift            0      0.00%     64.19% # Class of committed instruction
system.cpu0.commit.op_class_0::SimdShiftAcc            0      0.00%     64.19% # Class of committed instruction
system.cpu0.commit.op_class_0::SimdDiv              0      0.00%     64.19% # Class of committed instruction
system.cpu0.commit.op_class_0::SimdSqrt             0      0.00%     64.19% # Class of committed instruction
system.cpu0.commit.op_class_0::SimdFloatAdd            0      0.00%     64.19% # Class of committed instruction
system.cpu0.commit.op_class_0::SimdFloatAlu            0      0.00%     64.19% # Class of committed instruction
system.cpu0.commit.op_class_0::SimdFloatCmp            0      0.00%     64.19% # Class of committed instruction
system.cpu0.commit.op_class_0::SimdFloatCvt            0      0.00%     64.19% # Class of committed instruction
system.cpu0.commit.op_class_0::SimdFloatDiv            0      0.00%     64.19% # Class of committed instruction
system.cpu0.commit.op_class_0::SimdFloatMisc            0      0.00%     64.19% # Class of committed instruction
system.cpu0.commit.op_class_0::SimdFloatMult            0      0.00%     64.19% # Class of committed instruction
system.cpu0.commit.op_class_0::SimdFloatMultAcc            0      0.00%     64.19% # Class of committed instruction
system.cpu0.commit.op_class_0::SimdFloatSqrt            0      0.00%     64.19% # Class of committed instruction
system.cpu0.commit.op_class_0::SimdReduceAdd            0      0.00%     64.19% # Class of committed instruction
system.cpu0.commit.op_class_0::SimdReduceAlu            0      0.00%     64.19% # Class of committed instruction
system.cpu0.commit.op_class_0::SimdReduceCmp            0      0.00%     64.19% # Class of committed instruction
system.cpu0.commit.op_class_0::SimdFloatReduceAdd            0      0.00%     64.19% # Class of committed instruction
system.cpu0.commit.op_class_0::SimdFloatReduceCmp            0      0.00%     64.19% # Class of committed instruction
system.cpu0.commit.op_class_0::SimdAes              0      0.00%     64.19% # Class of committed instruction
system.cpu0.commit.op_class_0::SimdAesMix            0      0.00%     64.19% # Class of committed instruction
system.cpu0.commit.op_class_0::SimdSha1Hash            0      0.00%     64.19% # Class of committed instruction
system.cpu0.commit.op_class_0::SimdSha1Hash2            0      0.00%     64.19% # Class of committed instruction
system.cpu0.commit.op_class_0::SimdSha256Hash            0      0.00%     64.19% # Class of committed instruction
system.cpu0.commit.op_class_0::SimdSha256Hash2            0      0.00%     64.19% # Class of committed instruction
system.cpu0.commit.op_class_0::SimdShaSigma2            0      0.00%     64.19% # Class of committed instruction
system.cpu0.commit.op_class_0::SimdShaSigma3            0      0.00%     64.19% # Class of committed instruction
system.cpu0.commit.op_class_0::SimdPredAlu            0      0.00%     64.19% # Class of committed instruction
system.cpu0.commit.op_class_0::MemRead         171784     19.68%     83.87% # Class of committed instruction
system.cpu0.commit.op_class_0::MemWrite        140846     16.13%    100.00% # Class of committed instruction
system.cpu0.commit.op_class_0::FloatMemRead            0      0.00%    100.00% # Class of committed instruction
system.cpu0.commit.op_class_0::FloatMemWrite            0      0.00%    100.00% # Class of committed instruction
system.cpu0.commit.op_class_0::IprAccess            0      0.00%    100.00% # Class of committed instruction
system.cpu0.commit.op_class_0::InstPrefetch            0      0.00%    100.00% # Class of committed instruction
system.cpu0.commit.op_class_0::total           873044                       # Class of committed instruction
system.cpu0.commit.refs                        312630                       # Number of memory references committed
system.cpu0.commit.swp_count                        0                       # Number of s/w prefetches committed
system.cpu0.commit.vec_insts                        0                       # Number of committed Vector instructions.
system.cpu0.committedInsts                     791962                       # Number of Instructions Simulated
system.cpu0.committedOps                       873044                       # Number of Ops (including micro ops) Simulated
system.cpu0.cpi                              0.739236                       # CPI: Cycles Per Instruction
system.cpu0.cpi_total                        0.739236                       # CPI: Total CPI of All Threads
system.cpu0.decode.BlockedCycles               146371                       # Number of cycles decode is blocked
system.cpu0.decode.BranchMispred                 1170                       # Number of times decode detected a branch misprediction
system.cpu0.decode.BranchResolved               67659                       # Number of times decode resolved a branch
system.cpu0.decode.DecodedInsts                926433                       # Number of instructions handled by decode
system.cpu0.decode.IdleCycles                   42084                       # Number of cycles decode is idle
system.cpu0.decode.RunCycles                   328446                       # Number of cycles decode is running
system.cpu0.decode.SquashCycles                  2613                       # Number of cycles decode is squashing
system.cpu0.decode.SquashedInsts                19528                       # Number of squashed instructions handled by decode
system.cpu0.decode.UnblockCycles                31666                       # Number of cycles decode is unblocking
system.cpu0.dtb.accesses                            0                       # DTB accesses
system.cpu0.dtb.align_faults                        0                       # Number of TLB faults due to alignment restrictions
system.cpu0.dtb.domain_faults                       0                       # Number of TLB faults due to domain restrictions
system.cpu0.dtb.flush_entries                       0                       # Number of entries that have been flushed from TLB
system.cpu0.dtb.flush_tlb                           0                       # Number of times complete TLB was flushed
system.cpu0.dtb.flush_tlb_asid                      0                       # Number of times TLB was flushed by ASID
system.cpu0.dtb.flush_tlb_mva                       0                       # Number of times TLB was flushed by MVA
system.cpu0.dtb.flush_tlb_mva_asid                  0                       # Number of times TLB was flushed by MVA & ASID
system.cpu0.dtb.hits                                0                       # DTB hits
system.cpu0.dtb.inst_accesses                       0                       # ITB inst accesses
system.cpu0.dtb.inst_hits                           0                       # ITB inst hits
system.cpu0.dtb.inst_misses                         0                       # ITB inst misses
system.cpu0.dtb.misses                              0                       # DTB misses
system.cpu0.dtb.perms_faults                        0                       # Number of TLB faults due to permissions restrictions
system.cpu0.dtb.prefetch_faults                     0                       # Number of TLB faults due to prefetch
system.cpu0.dtb.read_accesses                       0                       # DTB read accesses
system.cpu0.dtb.read_hits                           0                       # DTB read hits
system.cpu0.dtb.read_misses                         0                       # DTB read misses
system.cpu0.dtb.stage2_mmu.stage2_tlb.accesses            0                       # DTB accesses
system.cpu0.dtb.stage2_mmu.stage2_tlb.align_faults            0                       # Number of TLB faults due to alignment restrictions
system.cpu0.dtb.stage2_mmu.stage2_tlb.domain_faults            0                       # Number of TLB faults due to domain restrictions
system.cpu0.dtb.stage2_mmu.stage2_tlb.flush_entries            0                       # Number of entries that have been flushed from TLB
system.cpu0.dtb.stage2_mmu.stage2_tlb.flush_tlb            0                       # Number of times complete TLB was flushed
system.cpu0.dtb.stage2_mmu.stage2_tlb.flush_tlb_asid            0                       # Number of times TLB was flushed by ASID
system.cpu0.dtb.stage2_mmu.stage2_tlb.flush_tlb_mva            0                       # Number of times TLB was flushed by MVA
system.cpu0.dtb.stage2_mmu.stage2_tlb.flush_tlb_mva_asid            0                       # Number of times TLB was flushed by MVA & ASID
system.cpu0.dtb.stage2_mmu.stage2_tlb.hits            0                       # DTB hits
system.cpu0.dtb.stage2_mmu.stage2_tlb.inst_accesses            0                       # ITB inst accesses
system.cpu0.dtb.stage2_mmu.stage2_tlb.inst_hits            0                       # ITB inst hits
system.cpu0.dtb.stage2_mmu.stage2_tlb.inst_misses            0                       # ITB inst misses
system.cpu0.dtb.stage2_mmu.stage2_tlb.misses            0                       # DTB misses
system.cpu0.dtb.stage2_mmu.stage2_tlb.perms_faults            0                       # Number of TLB faults due to permissions restrictions
system.cpu0.dtb.stage2_mmu.stage2_tlb.prefetch_faults            0                       # Number of TLB faults due to prefetch
system.cpu0.dtb.stage2_mmu.stage2_tlb.read_accesses            0                       # DTB read accesses
system.cpu0.dtb.stage2_mmu.stage2_tlb.read_hits            0                       # DTB read hits
system.cpu0.dtb.stage2_mmu.stage2_tlb.read_misses            0                       # DTB read misses
system.cpu0.dtb.stage2_mmu.stage2_tlb.walker.walkRequestOrigin_Requested::Data            0                       # Table walker requests started/completed, data/inst
system.cpu0.dtb.stage2_mmu.stage2_tlb.walker.walkRequestOrigin_Requested::Inst            0                       # Table walker requests started/completed, data/inst
system.cpu0.dtb.stage2_mmu.stage2_tlb.walker.walkRequestOrigin_Requested::total            0                       # Table walker requests started/completed, data/inst
system.cpu0.dtb.stage2_mmu.stage2_tlb.walker.walkRequestOrigin_Completed::Data            0                       # Table walker requests started/completed, data/inst
system.cpu0.dtb.stage2_mmu.stage2_tlb.walker.walkRequestOrigin_Completed::Inst            0                       # Table walker requests started/completed, data/inst
system.cpu0.dtb.stage2_mmu.stage2_tlb.walker.walkRequestOrigin_Completed::total            0                       # Table walker requests started/completed, data/inst
system.cpu0.dtb.stage2_mmu.stage2_tlb.walker.walkRequestOrigin::total            0                       # Table walker requests started/completed, data/inst
system.cpu0.dtb.stage2_mmu.stage2_tlb.walker.walks            0                       # Table walker walks requested
system.cpu0.dtb.stage2_mmu.stage2_tlb.write_accesses            0                       # DTB write accesses
system.cpu0.dtb.stage2_mmu.stage2_tlb.write_hits            0                       # DTB write hits
system.cpu0.dtb.stage2_mmu.stage2_tlb.write_misses            0                       # DTB write misses
system.cpu0.dtb.walker.walkRequestOrigin_Requested::Data            0                       # Table walker requests started/completed, data/inst
system.cpu0.dtb.walker.walkRequestOrigin_Requested::Inst            0                       # Table walker requests started/completed, data/inst
system.cpu0.dtb.walker.walkRequestOrigin_Requested::total            0                       # Table walker requests started/completed, data/inst
system.cpu0.dtb.walker.walkRequestOrigin_Completed::Data            0                       # Table walker requests started/completed, data/inst
system.cpu0.dtb.walker.walkRequestOrigin_Completed::Inst            0                       # Table walker requests started/completed, data/inst
system.cpu0.dtb.walker.walkRequestOrigin_Completed::total            0                       # Table walker requests started/completed, data/inst
system.cpu0.dtb.walker.walkRequestOrigin::total            0                       # Table walker requests started/completed, data/inst
system.cpu0.dtb.walker.walks                        0                       # Table walker walks requested
system.cpu0.dtb.write_accesses                      0                       # DTB write accesses
system.cpu0.dtb.write_hits                          0                       # DTB write hits
system.cpu0.dtb.write_misses                        0                       # DTB write misses
system.cpu0.fetch.Branches                     181961                       # Number of branches that fetch encountered
system.cpu0.fetch.CacheLines                   219990                       # Number of cache lines fetched
system.cpu0.fetch.Cycles                       534030                       # Number of cycles fetch has run and was not squashing or blocked
system.cpu0.fetch.IcacheSquashes                  251                       # Number of outstanding Icache misses that were squashed
system.cpu0.fetch.IcacheWaitRetryStallCycles          422                       # Number of stall cycles due to full MSHR
system.cpu0.fetch.Insts                        892986                       # Number of instructions fetch has processed
system.cpu0.fetch.MiscStallCycles                  74                       # Number of cycles fetch has spent waiting on interrupts, or bad addresses, or out of MSHRs
system.cpu0.fetch.PendingTrapStallCycles           47                       # Number of stall cycles due to pending traps
system.cpu0.fetch.SquashCycles                   7566                       # Number of cycles fetch has spent squashing
system.cpu0.fetch.branchRate                 0.310807                       # Number of branch fetches per cycle
system.cpu0.fetch.icacheStallCycles             12824                       # Number of cycles fetch is stalled on an Icache miss
system.cpu0.fetch.predictedBranches             83158                       # Number of branches that fetch has predicted taken
system.cpu0.fetch.rate                       1.525306                       # Number of inst fetches per cycle
system.cpu0.fetch.rateDist::samples            551180                       # Number of instructions fetched each cycle (Total)
system.cpu0.fetch.rateDist::mean             1.783223                       # Number of instructions fetched each cycle (Total)
system.cpu0.fetch.rateDist::stdev            1.256742                       # Number of instructions fetched each cycle (Total)
system.cpu0.fetch.rateDist::underflows              0      0.00%      0.00% # Number of instructions fetched each cycle (Total)
system.cpu0.fetch.rateDist::0                  143862     26.10%     26.10% # Number of instructions fetched each cycle (Total)
system.cpu0.fetch.rateDist::1                   76372     13.86%     39.96% # Number of instructions fetched each cycle (Total)
system.cpu0.fetch.rateDist::2                   86333     15.66%     55.62% # Number of instructions fetched each cycle (Total)
system.cpu0.fetch.rateDist::3                  244613     44.38%    100.00% # Number of instructions fetched each cycle (Total)
system.cpu0.fetch.rateDist::overflows               0      0.00%    100.00% # Number of instructions fetched each cycle (Total)
system.cpu0.fetch.rateDist::min_value               0                       # Number of instructions fetched each cycle (Total)
system.cpu0.fetch.rateDist::max_value               3                       # Number of instructions fetched each cycle (Total)
system.cpu0.fetch.rateDist::total              551180                       # Number of instructions fetched each cycle (Total)
system.cpu0.idleCycles                          34267                       # Total number of cycles that the CPU has spent unscheduled due to idling
system.cpu0.iew.branchMispredicts                2603                       # Number of branch mispredicts detected at execute
system.cpu0.iew.exec_branches                  162940                       # Number of branches executed
system.cpu0.iew.exec_nop                           38                       # number of nop insts executed
system.cpu0.iew.exec_rate                    1.524784                       # Inst execution rate
system.cpu0.iew.exec_refs                      321226                       # number of memory reference insts executed
system.cpu0.iew.exec_stores                    141637                       # Number of stores executed
system.cpu0.iew.exec_swp                            0                       # number of swp insts executed
system.cpu0.iew.iewBlockCycles                   3093                       # Number of cycles IEW is blocking
system.cpu0.iew.iewBranchMispredictRate      1.597521                       # Percentage of branch mispredicts
system.cpu0.iew.iewBranchPercentage         18.252901                       # Percentage of branches executed
system.cpu0.iew.iewDispLoadInsts               180020                       # Number of dispatched load instructions
system.cpu0.iew.iewDispNonSpecInsts              1002                       # Number of dispatched non-speculative instructions
system.cpu0.iew.iewDispSquashedInsts                0                       # Number of squashed instructions skipped by dispatch
system.cpu0.iew.iewDispStoreInsts              143706                       # Number of dispatched store instructions
system.cpu0.iew.iewDispatchedInsts             909871                       # Number of instructions dispatched to IQ
system.cpu0.iew.iewExecLoadInsts               179589                       # Number of load instructions executed
system.cpu0.iew.iewExecSquashedInsts             5324                       # Number of squashed instructions skipped in execute
system.cpu0.iew.iewExecutedInsts               892680                       # Number of executed instructions
system.cpu0.iew.iewIQFullEvents                     3                       # Number of times the IQ has become full, causing a stall
system.cpu0.iew.iewIdleCycles                       0                       # Number of cycles IEW is idle
system.cpu0.iew.iewLSQFullEvents                 8669                       # Number of times the LSQ has become full, causing a stall
system.cpu0.iew.iewSquashCycles                  2613                       # Number of cycles IEW is squashing
system.cpu0.iew.iewUnblockCycles                 8673                       # Number of cycles IEW is unblocking
system.cpu0.iew.lsq.thread0.blockedLoads            0                       # Number of blocked loads due to partial load-store forwarding
system.cpu0.iew.lsq.thread0.cacheBlocked          138                       # Number of times an access to memory failed due to the cache being blocked
system.cpu0.iew.lsq.thread0.forwLoads           15343                       # Number of loads that had data forwarded from stores
system.cpu0.iew.lsq.thread0.ignoredResponses            0                       # Number of memory responses ignored because the instruction is squashed
system.cpu0.iew.lsq.thread0.invAddrLoads            0                       # Number of loads ignored due to an invalid address
system.cpu0.iew.lsq.thread0.invAddrSwpfs            0                       # Number of software prefetches ignored due to an invalid address
system.cpu0.iew.lsq.thread0.memOrderViolation           39                       # Number of memory ordering violations
system.cpu0.iew.lsq.thread0.rescheduledLoads         1822                       # Number of loads that were rescheduled
system.cpu0.iew.lsq.thread0.squashedLoads         8236                       # Number of loads squashed
system.cpu0.iew.lsq.thread0.squashedStores         2848                       # Number of stores squashed
system.cpu0.iew.memOrderViolationEvents            39                       # Number of memory order violations
system.cpu0.iew.predictedNotTakenIncorrect         2591                       # Number of branches that were predicted not taken incorrectly
system.cpu0.iew.predictedTakenIncorrect            12                       # Number of branches that were predicted taken incorrectly
system.cpu0.iew.wb_consumers                   783824                       # num instructions consuming a value
system.cpu0.iew.wb_count                       887608                       # cumulative count of insts written-back
system.cpu0.iew.wb_fanout                    0.592990                       # average fanout of values written-back
system.cpu0.iew.wb_producers                   464800                       # num instructions producing a value
system.cpu0.iew.wb_rate                      1.516120                       # insts written-back per cycle
system.cpu0.iew.wb_sent                        888261                       # cumulative count of insts sent to commit
system.cpu0.int_regfile_reads                  909988                       # number of integer regfile reads
system.cpu0.int_regfile_writes                 455120                       # number of integer regfile writes
system.cpu0.ipc                              1.352748                       # IPC: Instructions Per Cycle
system.cpu0.ipc_total                        1.352748                       # IPC: Total IPC of All Threads
system.cpu0.iq.FU_type_0::No_OpClass                0      0.00%      0.00% # Type of FU issued
system.cpu0.iq.FU_type_0::IntAlu               572441     63.75%     63.75% # Type of FU issued
system.cpu0.iq.FU_type_0::IntMult                2742      0.31%     64.05% # Type of FU issued
system.cpu0.iq.FU_type_0::IntDiv                    0      0.00%     64.05% # Type of FU issued
system.cpu0.iq.FU_type_0::FloatAdd                  0      0.00%     64.05% # Type of FU issued
system.cpu0.iq.FU_type_0::FloatCmp                  0      0.00%     64.05% # Type of FU issued
system.cpu0.iq.FU_type_0::FloatCvt                  0      0.00%     64.05% # Type of FU issued
system.cpu0.iq.FU_type_0::FloatMult                 0      0.00%     64.05% # Type of FU issued
system.cpu0.iq.FU_type_0::FloatMultAcc              0      0.00%     64.05% # Type of FU issued
system.cpu0.iq.FU_type_0::FloatDiv                  0      0.00%     64.05% # Type of FU issued
system.cpu0.iq.FU_type_0::FloatMisc                 0      0.00%     64.05% # Type of FU issued
system.cpu0.iq.FU_type_0::FloatSqrt                 0      0.00%     64.05% # Type of FU issued
system.cpu0.iq.FU_type_0::SimdAdd                   9      0.00%     64.05% # Type of FU issued
system.cpu0.iq.FU_type_0::SimdAddAcc                2      0.00%     64.05% # Type of FU issued
system.cpu0.iq.FU_type_0::SimdAlu                   0      0.00%     64.05% # Type of FU issued
system.cpu0.iq.FU_type_0::SimdCmp                   0      0.00%     64.05% # Type of FU issued
system.cpu0.iq.FU_type_0::SimdCvt                   0      0.00%     64.05% # Type of FU issued
system.cpu0.iq.FU_type_0::SimdMisc                  0      0.00%     64.05% # Type of FU issued
system.cpu0.iq.FU_type_0::SimdMult                  0      0.00%     64.05% # Type of FU issued
system.cpu0.iq.FU_type_0::SimdMultAcc               0      0.00%     64.05% # Type of FU issued
system.cpu0.iq.FU_type_0::SimdShift                 4      0.00%     64.05% # Type of FU issued
system.cpu0.iq.FU_type_0::SimdShiftAcc              0      0.00%     64.05% # Type of FU issued
system.cpu0.iq.FU_type_0::SimdDiv                   0      0.00%     64.05% # Type of FU issued
system.cpu0.iq.FU_type_0::SimdSqrt                  0      0.00%     64.05% # Type of FU issued
system.cpu0.iq.FU_type_0::SimdFloatAdd              0      0.00%     64.05% # Type of FU issued
system.cpu0.iq.FU_type_0::SimdFloatAlu              0      0.00%     64.05% # Type of FU issued
system.cpu0.iq.FU_type_0::SimdFloatCmp              0      0.00%     64.05% # Type of FU issued
system.cpu0.iq.FU_type_0::SimdFloatCvt              0      0.00%     64.05% # Type of FU issued
system.cpu0.iq.FU_type_0::SimdFloatDiv              0      0.00%     64.05% # Type of FU issued
system.cpu0.iq.FU_type_0::SimdFloatMisc             0      0.00%     64.05% # Type of FU issued
system.cpu0.iq.FU_type_0::SimdFloatMult             0      0.00%     64.05% # Type of FU issued
system.cpu0.iq.FU_type_0::SimdFloatMultAcc            0      0.00%     64.05% # Type of FU issued
system.cpu0.iq.FU_type_0::SimdFloatSqrt             0      0.00%     64.05% # Type of FU issued
system.cpu0.iq.FU_type_0::SimdReduceAdd             0      0.00%     64.05% # Type of FU issued
system.cpu0.iq.FU_type_0::SimdReduceAlu             0      0.00%     64.05% # Type of FU issued
system.cpu0.iq.FU_type_0::SimdReduceCmp             0      0.00%     64.05% # Type of FU issued
system.cpu0.iq.FU_type_0::SimdFloatReduceAdd            0      0.00%     64.05% # Type of FU issued
system.cpu0.iq.FU_type_0::SimdFloatReduceCmp            0      0.00%     64.05% # Type of FU issued
system.cpu0.iq.FU_type_0::SimdAes                   0      0.00%     64.05% # Type of FU issued
system.cpu0.iq.FU_type_0::SimdAesMix                0      0.00%     64.05% # Type of FU issued
system.cpu0.iq.FU_type_0::SimdSha1Hash              0      0.00%     64.05% # Type of FU issued
system.cpu0.iq.FU_type_0::SimdSha1Hash2             0      0.00%     64.05% # Type of FU issued
system.cpu0.iq.FU_type_0::SimdSha256Hash            0      0.00%     64.05% # Type of FU issued
system.cpu0.iq.FU_type_0::SimdSha256Hash2            0      0.00%     64.05% # Type of FU issued
system.cpu0.iq.FU_type_0::SimdShaSigma2             0      0.00%     64.05% # Type of FU issued
system.cpu0.iq.FU_type_0::SimdShaSigma3             0      0.00%     64.05% # Type of FU issued
system.cpu0.iq.FU_type_0::SimdPredAlu               0      0.00%     64.05% # Type of FU issued
system.cpu0.iq.FU_type_0::MemRead              180970     20.15%     84.21% # Type of FU issued
system.cpu0.iq.FU_type_0::MemWrite             141839     15.79%    100.00% # Type of FU issued
system.cpu0.iq.FU_type_0::FloatMemRead              0      0.00%    100.00% # Type of FU issued
system.cpu0.iq.FU_type_0::FloatMemWrite             0      0.00%    100.00% # Type of FU issued
system.cpu0.iq.FU_type_0::IprAccess                 0      0.00%    100.00% # Type of FU issued
system.cpu0.iq.FU_type_0::InstPrefetch              0      0.00%    100.00% # Type of FU issued
system.cpu0.iq.FU_type_0::total                898007                       # Type of FU issued
system.cpu0.iq.fp_alu_accesses                      0                       # Number of floating point alu accesses
system.cpu0.iq.fp_inst_queue_reads                  0                       # Number of floating instruction queue reads
system.cpu0.iq.fp_inst_queue_wakeup_accesses            0                       # Number of floating instruction queue wakeup accesses
system.cpu0.iq.fp_inst_queue_writes                 0                       # Number of floating instruction queue writes
system.cpu0.iq.fu_busy_cnt                     289718                       # FU busy when requested
system.cpu0.iq.fu_busy_rate                  0.322623                       # FU busy rate (busy events/executed inst)
system.cpu0.iq.fu_full::No_OpClass                  0      0.00%      0.00% # attempts to use FU when none available
system.cpu0.iq.fu_full::IntAlu                 153395     52.95%     52.95% # attempts to use FU when none available
system.cpu0.iq.fu_full::IntMult                     0      0.00%     52.95% # attempts to use FU when none available
system.cpu0.iq.fu_full::IntDiv                      0      0.00%     52.95% # attempts to use FU when none available
system.cpu0.iq.fu_full::FloatAdd                    0      0.00%     52.95% # attempts to use FU when none available
system.cpu0.iq.fu_full::FloatCmp                    0      0.00%     52.95% # attempts to use FU when none available
system.cpu0.iq.fu_full::FloatCvt                    0      0.00%     52.95% # attempts to use FU when none available
system.cpu0.iq.fu_full::FloatMult                   0      0.00%     52.95% # attempts to use FU when none available
system.cpu0.iq.fu_full::FloatMultAcc                0      0.00%     52.95% # attempts to use FU when none available
system.cpu0.iq.fu_full::FloatDiv                    0      0.00%     52.95% # attempts to use FU when none available
system.cpu0.iq.fu_full::FloatMisc                   0      0.00%     52.95% # attempts to use FU when none available
system.cpu0.iq.fu_full::FloatSqrt                   0      0.00%     52.95% # attempts to use FU when none available
system.cpu0.iq.fu_full::SimdAdd                     0      0.00%     52.95% # attempts to use FU when none available
system.cpu0.iq.fu_full::SimdAddAcc                  0      0.00%     52.95% # attempts to use FU when none available
system.cpu0.iq.fu_full::SimdAlu                     0      0.00%     52.95% # attempts to use FU when none available
system.cpu0.iq.fu_full::SimdCmp                     0      0.00%     52.95% # attempts to use FU when none available
system.cpu0.iq.fu_full::SimdCvt                     0      0.00%     52.95% # attempts to use FU when none available
system.cpu0.iq.fu_full::SimdMisc                    0      0.00%     52.95% # attempts to use FU when none available
system.cpu0.iq.fu_full::SimdMult                    0      0.00%     52.95% # attempts to use FU when none available
system.cpu0.iq.fu_full::SimdMultAcc                 0      0.00%     52.95% # attempts to use FU when none available
system.cpu0.iq.fu_full::SimdShift                   0      0.00%     52.95% # attempts to use FU when none available
system.cpu0.iq.fu_full::SimdShiftAcc                0      0.00%     52.95% # attempts to use FU when none available
system.cpu0.iq.fu_full::SimdDiv                     0      0.00%     52.95% # attempts to use FU when none available
system.cpu0.iq.fu_full::SimdSqrt                    0      0.00%     52.95% # attempts to use FU when none available
system.cpu0.iq.fu_full::SimdFloatAdd                0      0.00%     52.95% # attempts to use FU when none available
system.cpu0.iq.fu_full::SimdFloatAlu                0      0.00%     52.95% # attempts to use FU when none available
system.cpu0.iq.fu_full::SimdFloatCmp                0      0.00%     52.95% # attempts to use FU when none available
system.cpu0.iq.fu_full::SimdFloatCvt                0      0.00%     52.95% # attempts to use FU when none available
system.cpu0.iq.fu_full::SimdFloatDiv                0      0.00%     52.95% # attempts to use FU when none available
system.cpu0.iq.fu_full::SimdFloatMisc               0      0.00%     52.95% # attempts to use FU when none available
system.cpu0.iq.fu_full::SimdFloatMult               0      0.00%     52.95% # attempts to use FU when none available
system.cpu0.iq.fu_full::SimdFloatMultAcc            0      0.00%     52.95% # attempts to use FU when none available
system.cpu0.iq.fu_full::SimdFloatSqrt               0      0.00%     52.95% # attempts to use FU when none available
system.cpu0.iq.fu_full::SimdReduceAdd               0      0.00%     52.95% # attempts to use FU when none available
system.cpu0.iq.fu_full::SimdReduceAlu               0      0.00%     52.95% # attempts to use FU when none available
system.cpu0.iq.fu_full::SimdReduceCmp               0      0.00%     52.95% # attempts to use FU when none available
system.cpu0.iq.fu_full::SimdFloatReduceAdd            0      0.00%     52.95% # attempts to use FU when none available
system.cpu0.iq.fu_full::SimdFloatReduceCmp            0      0.00%     52.95% # attempts to use FU when none available
system.cpu0.iq.fu_full::SimdAes                     0      0.00%     52.95% # attempts to use FU when none available
system.cpu0.iq.fu_full::SimdAesMix                  0      0.00%     52.95% # attempts to use FU when none available
system.cpu0.iq.fu_full::SimdSha1Hash                0      0.00%     52.95% # attempts to use FU when none available
system.cpu0.iq.fu_full::SimdSha1Hash2               0      0.00%     52.95% # attempts to use FU when none available
system.cpu0.iq.fu_full::SimdSha256Hash              0      0.00%     52.95% # attempts to use FU when none available
system.cpu0.iq.fu_full::SimdSha256Hash2             0      0.00%     52.95% # attempts to use FU when none available
system.cpu0.iq.fu_full::SimdShaSigma2               0      0.00%     52.95% # attempts to use FU when none available
system.cpu0.iq.fu_full::SimdShaSigma3               0      0.00%     52.95% # attempts to use FU when none available
system.cpu0.iq.fu_full::SimdPredAlu                 0      0.00%     52.95% # attempts to use FU when none available
system.cpu0.iq.fu_full::MemRead                 77669     26.81%     79.75% # attempts to use FU when none available
system.cpu0.iq.fu_full::MemWrite                58654     20.25%    100.00% # attempts to use FU when none available
system.cpu0.iq.fu_full::FloatMemRead                0      0.00%    100.00% # attempts to use FU when none available
system.cpu0.iq.fu_full::FloatMemWrite               0      0.00%    100.00% # attempts to use FU when none available
system.cpu0.iq.fu_full::IprAccess                   0      0.00%    100.00% # attempts to use FU when none available
system.cpu0.iq.fu_full::InstPrefetch                0      0.00%    100.00% # attempts to use FU when none available
system.cpu0.iq.int_alu_accesses               1187725                       # Number of integer alu accesses
system.cpu0.iq.int_inst_queue_reads           2640586                       # Number of integer instruction queue reads
system.cpu0.iq.int_inst_queue_wakeup_accesses       887608                       # Number of integer instruction queue wakeup accesses
system.cpu0.iq.int_inst_queue_writes           946640                       # Number of integer instruction queue writes
system.cpu0.iq.iqInstsAdded                    907869                       # Number of instructions added to the IQ (excludes non-spec)
system.cpu0.iq.iqInstsIssued                   898007                       # Number of instructions issued
system.cpu0.iq.iqNonSpecInstsAdded               1964                       # Number of non-speculative instructions added to the IQ
system.cpu0.iq.iqSquashedInstsExamined          36773                       # Number of squashed instructions iterated over during squash; mainly for profiling
system.cpu0.iq.iqSquashedInstsIssued             3677                       # Number of squashed instructions issued
system.cpu0.iq.iqSquashedNonSpecRemoved            30                       # Number of squashed non-spec instructions that were removed
system.cpu0.iq.iqSquashedOperandsExamined        83801                       # Number of squashed operands that are examined and possibly removed from graph
system.cpu0.iq.issued_per_cycle::samples       551180                       # Number of insts issued each cycle
system.cpu0.iq.issued_per_cycle::mean        1.629245                       # Number of insts issued each cycle
system.cpu0.iq.issued_per_cycle::stdev       1.221055                       # Number of insts issued each cycle
system.cpu0.iq.issued_per_cycle::underflows            0      0.00%      0.00% # Number of insts issued each cycle
system.cpu0.iq.issued_per_cycle::0             150167     27.24%     27.24% # Number of insts issued each cycle
system.cpu0.iq.issued_per_cycle::1              76849     13.94%     41.19% # Number of insts issued each cycle
system.cpu0.iq.issued_per_cycle::2             174034     31.57%     72.76% # Number of insts issued each cycle
system.cpu0.iq.issued_per_cycle::3             128336     23.28%     96.05% # Number of insts issued each cycle
system.cpu0.iq.issued_per_cycle::4              20888      3.79%     99.84% # Number of insts issued each cycle
system.cpu0.iq.issued_per_cycle::5                906      0.16%    100.00% # Number of insts issued each cycle
system.cpu0.iq.issued_per_cycle::6                  0      0.00%    100.00% # Number of insts issued each cycle
system.cpu0.iq.issued_per_cycle::7                  0      0.00%    100.00% # Number of insts issued each cycle
system.cpu0.iq.issued_per_cycle::8                  0      0.00%    100.00% # Number of insts issued each cycle
system.cpu0.iq.issued_per_cycle::overflows            0      0.00%    100.00% # Number of insts issued each cycle
system.cpu0.iq.issued_per_cycle::min_value            0                       # Number of insts issued each cycle
system.cpu0.iq.issued_per_cycle::max_value            5                       # Number of insts issued each cycle
system.cpu0.iq.issued_per_cycle::total         551180                       # Number of insts issued each cycle
system.cpu0.iq.rate                          1.533883                       # Inst issue rate
system.cpu0.iq.vec_alu_accesses                     0                       # Number of vector alu accesses
system.cpu0.iq.vec_inst_queue_reads                 0                       # Number of vector instruction queue reads
system.cpu0.iq.vec_inst_queue_wakeup_accesses            0                       # Number of vector instruction queue wakeup accesses
system.cpu0.iq.vec_inst_queue_writes                0                       # Number of vector instruction queue writes
system.cpu0.itb.accesses                            0                       # DTB accesses
system.cpu0.itb.align_faults                        0                       # Number of TLB faults due to alignment restrictions
system.cpu0.itb.domain_faults                       0                       # Number of TLB faults due to domain restrictions
system.cpu0.itb.flush_entries                       0                       # Number of entries that have been flushed from TLB
system.cpu0.itb.flush_tlb                           0                       # Number of times complete TLB was flushed
system.cpu0.itb.flush_tlb_asid                      0                       # Number of times TLB was flushed by ASID
system.cpu0.itb.flush_tlb_mva                       0                       # Number of times TLB was flushed by MVA
system.cpu0.itb.flush_tlb_mva_asid                  0                       # Number of times TLB was flushed by MVA & ASID
system.cpu0.itb.hits                                0                       # DTB hits
system.cpu0.itb.inst_accesses                       0                       # ITB inst accesses
system.cpu0.itb.inst_hits                           0                       # ITB inst hits
system.cpu0.itb.inst_misses                         0                       # ITB inst misses
system.cpu0.itb.misses                              0                       # DTB misses
system.cpu0.itb.perms_faults                        0                       # Number of TLB faults due to permissions restrictions
system.cpu0.itb.prefetch_faults                     0                       # Number of TLB faults due to prefetch
system.cpu0.itb.read_accesses                       0                       # DTB read accesses
system.cpu0.itb.read_hits                           0                       # DTB read hits
system.cpu0.itb.read_misses                         0                       # DTB read misses
system.cpu0.itb.stage2_mmu.stage2_tlb.accesses            0                       # DTB accesses
system.cpu0.itb.stage2_mmu.stage2_tlb.align_faults            0                       # Number of TLB faults due to alignment restrictions
system.cpu0.itb.stage2_mmu.stage2_tlb.domain_faults            0                       # Number of TLB faults due to domain restrictions
system.cpu0.itb.stage2_mmu.stage2_tlb.flush_entries            0                       # Number of entries that have been flushed from TLB
system.cpu0.itb.stage2_mmu.stage2_tlb.flush_tlb            0                       # Number of times complete TLB was flushed
system.cpu0.itb.stage2_mmu.stage2_tlb.flush_tlb_asid            0                       # Number of times TLB was flushed by ASID
system.cpu0.itb.stage2_mmu.stage2_tlb.flush_tlb_mva            0                       # Number of times TLB was flushed by MVA
system.cpu0.itb.stage2_mmu.stage2_tlb.flush_tlb_mva_asid            0                       # Number of times TLB was flushed by MVA & ASID
system.cpu0.itb.stage2_mmu.stage2_tlb.hits            0                       # DTB hits
system.cpu0.itb.stage2_mmu.stage2_tlb.inst_accesses            0                       # ITB inst accesses
system.cpu0.itb.stage2_mmu.stage2_tlb.inst_hits            0                       # ITB inst hits
system.cpu0.itb.stage2_mmu.stage2_tlb.inst_misses            0                       # ITB inst misses
system.cpu0.itb.stage2_mmu.stage2_tlb.misses            0                       # DTB misses
system.cpu0.itb.stage2_mmu.stage2_tlb.perms_faults            0                       # Number of TLB faults due to permissions restrictions
system.cpu0.itb.stage2_mmu.stage2_tlb.prefetch_faults            0                       # Number of TLB faults due to prefetch
system.cpu0.itb.stage2_mmu.stage2_tlb.read_accesses            0                       # DTB read accesses
system.cpu0.itb.stage2_mmu.stage2_tlb.read_hits            0                       # DTB read hits
system.cpu0.itb.stage2_mmu.stage2_tlb.read_misses            0                       # DTB read misses
system.cpu0.itb.stage2_mmu.stage2_tlb.walker.walkRequestOrigin_Requested::Data            0                       # Table walker requests started/completed, data/inst
system.cpu0.itb.stage2_mmu.stage2_tlb.walker.walkRequestOrigin_Requested::Inst            0                       # Table walker requests started/completed, data/inst
system.cpu0.itb.stage2_mmu.stage2_tlb.walker.walkRequestOrigin_Requested::total            0                       # Table walker requests started/completed, data/inst
system.cpu0.itb.stage2_mmu.stage2_tlb.walker.walkRequestOrigin_Completed::Data            0                       # Table walker requests started/completed, data/inst
system.cpu0.itb.stage2_mmu.stage2_tlb.walker.walkRequestOrigin_Completed::Inst            0                       # Table walker requests started/completed, data/inst
system.cpu0.itb.stage2_mmu.stage2_tlb.walker.walkRequestOrigin_Completed::total            0                       # Table walker requests started/completed, data/inst
system.cpu0.itb.stage2_mmu.stage2_tlb.walker.walkRequestOrigin::total            0                       # Table walker requests started/completed, data/inst
system.cpu0.itb.stage2_mmu.stage2_tlb.walker.walks            0                       # Table walker walks requested
system.cpu0.itb.stage2_mmu.stage2_tlb.write_accesses            0                       # DTB write accesses
system.cpu0.itb.stage2_mmu.stage2_tlb.write_hits            0                       # DTB write hits
system.cpu0.itb.stage2_mmu.stage2_tlb.write_misses            0                       # DTB write misses
system.cpu0.itb.walker.walkRequestOrigin_Requested::Data            0                       # Table walker requests started/completed, data/inst
system.cpu0.itb.walker.walkRequestOrigin_Requested::Inst            0                       # Table walker requests started/completed, data/inst
system.cpu0.itb.walker.walkRequestOrigin_Requested::total            0                       # Table walker requests started/completed, data/inst
system.cpu0.itb.walker.walkRequestOrigin_Completed::Data            0                       # Table walker requests started/completed, data/inst
system.cpu0.itb.walker.walkRequestOrigin_Completed::Inst            0                       # Table walker requests started/completed, data/inst
system.cpu0.itb.walker.walkRequestOrigin_Completed::total            0                       # Table walker requests started/completed, data/inst
system.cpu0.itb.walker.walkRequestOrigin::total            0                       # Table walker requests started/completed, data/inst
system.cpu0.itb.walker.walks                        0                       # Table walker walks requested
system.cpu0.itb.write_accesses                      0                       # DTB write accesses
system.cpu0.itb.write_hits                          0                       # DTB write hits
system.cpu0.itb.write_misses                        0                       # DTB write misses
system.cpu0.memDep0.conflictingLoads            13028                       # Number of conflicting loads.
system.cpu0.memDep0.conflictingStores            9159                       # Number of conflicting stores.
system.cpu0.memDep0.insertedLoads              180020                       # Number of loads inserted to the mem dependence unit.
system.cpu0.memDep0.insertedStores             143706                       # Number of stores inserted to the mem dependence unit.
system.cpu0.misc_regfile_reads                 341342                       # number of misc regfile reads
system.cpu0.misc_regfile_writes                  3821                       # number of misc regfile writes
system.cpu0.numCycles                          585447                       # number of cpu cycles simulated
system.cpu0.numWorkItemsCompleted                   0                       # number of work items this cpu completed
system.cpu0.numWorkItemsStarted                     0                       # number of work items this cpu started
system.cpu0.rename.BlockCycles                  17587                       # Number of cycles rename is blocking
system.cpu0.rename.CommittedMaps               970316                       # Number of HB maps that are committed
system.cpu0.rename.IQFullEvents                    61                       # Number of times rename has blocked due to IQ full
system.cpu0.rename.IdleCycles                   69432                       # Number of cycles rename is idle
system.cpu0.rename.ROBFullEvents                 8686                       # Number of times rename has blocked due to ROB full
system.cpu0.rename.RenameLookups              4031406                       # Number of register rename lookups that rename has made
system.cpu0.rename.RenamedInsts                913924                       # Number of instructions processed by rename
system.cpu0.rename.RenamedOperands            1021416                       # Number of destination operands rename has renamed
system.cpu0.rename.RunCycles                   331793                       # Number of cycles rename is running
system.cpu0.rename.SQFullEvents                 70259                       # Number of times rename has blocked due to SQ full
system.cpu0.rename.SquashCycles                  2613                       # Number of cycles rename is squashing
system.cpu0.rename.SquashedInsts                 5314                       # Number of squashed instructions processed by rename
system.cpu0.rename.UnblockCycles                95466                       # Number of cycles rename is unblocking
system.cpu0.rename.UndoneMaps                   51096                       # Number of HB maps that are undone due to squashing
system.cpu0.rename.int_rename_lookups          950699                       # Number of integer rename lookups
system.cpu0.rename.serializeStallCycles         34289                       # count of cycles rename stalled for serializing inst
system.cpu0.rename.serializingInsts              1013                       # count of serializing insts renamed
system.cpu0.rename.skidInsts                    57934                       # count of insts added to the skid buffer
system.cpu0.rename.tempSerializingInsts          1008                       # count of temporary serializing insts renamed
system.cpu0.rename.vec_rename_lookups            1100                       # Number of vector rename lookups
system.cpu0.rob.rob_reads                     1429502                       # The number of ROB reads
system.cpu0.rob.rob_writes                    1816041                       # The number of ROB writes
system.cpu0.timesIdled                            313                       # Number of times that the entire CPU went into an idle state and unscheduled itself
system.cpu0.vec_regfile_reads                    1028                       # number of vector regfile reads
system.cpu0.vec_regfile_writes                    992                       # number of vector regfile writes
system.cpu0.workload.numSyscalls                   23                       # Number of system calls
system.cpu1.branchPred.BTBCorrect                   0                       # Number of correct BTB predictions (this stat may not work properly.
system.cpu1.branchPred.BTBHitPct            99.707230                       # BTB Hit Percentage
system.cpu1.branchPred.BTBHits                 165855                       # Number of BTB hits
system.cpu1.branchPred.BTBLookups              166342                       # Number of BTB lookups
system.cpu1.branchPred.RASInCorrect                 2                       # Number of incorrect RAS predictions.
system.cpu1.branchPred.condIncorrect              668                       # Number of conditional branches incorrect
system.cpu1.branchPred.condPredicted           167787                       # Number of conditional branches predicted
system.cpu1.branchPred.indirectHits                 7                       # Number of indirect target hits.
system.cpu1.branchPred.indirectLookups             84                       # Number of indirect predictor lookups.
system.cpu1.branchPred.indirectMisses              77                       # Number of indirect misses.
system.cpu1.branchPred.lookups                 168954                       # Number of BP lookups
system.cpu1.branchPred.usedRAS                    350                       # Number of times the RAS was used to get a target.
system.cpu1.branchPredindirectMispredicted           54                       # Number of mispredicted indirect branches.
system.cpu1.cc_regfile_reads                  4011192                       # number of cc regfile reads
system.cpu1.cc_regfile_writes                  997741                       # number of cc regfile writes
system.cpu1.commit.amos                             0                       # Number of atomic instructions committed
system.cpu1.commit.branchMispredicts              459                       # The number of times a branch was mispredicted
system.cpu1.commit.branches                    166876                       # Number of branches committed
system.cpu1.commit.bw_lim_events                  104                       # number cycles where commit BW limit reached
system.cpu1.commit.commitNonSpecStalls             58                       # The number of times commit has been forced to stall to communicate backwards
system.cpu1.commit.commitSquashedInsts           4262                       # The number of squashed insts skipped by commit
system.cpu1.commit.committedInsts             1000015                       # Number of instructions committed
system.cpu1.commit.committedOps               1166632                       # Number of ops (including micro ops) committed
system.cpu1.commit.committed_per_cycle::samples       554975                       # Number of insts commited each cycle
system.cpu1.commit.committed_per_cycle::mean     2.102134                       # Number of insts commited each cycle
system.cpu1.commit.committed_per_cycle::stdev     1.944307                       # Number of insts commited each cycle
system.cpu1.commit.committed_per_cycle::underflows            0      0.00%      0.00% # Number of insts commited each cycle
system.cpu1.commit.committed_per_cycle::0        58091     10.47%     10.47% # Number of insts commited each cycle
system.cpu1.commit.committed_per_cycle::1       329134     59.31%     69.77% # Number of insts commited each cycle
system.cpu1.commit.committed_per_cycle::2         1119      0.20%     69.98% # Number of insts commited each cycle
system.cpu1.commit.committed_per_cycle::3          782      0.14%     70.12% # Number of insts commited each cycle
system.cpu1.commit.committed_per_cycle::4        10634      1.92%     72.03% # Number of insts commited each cycle
system.cpu1.commit.committed_per_cycle::5       141759     25.54%     97.58% # Number of insts commited each cycle
system.cpu1.commit.committed_per_cycle::6        12713      2.29%     99.87% # Number of insts commited each cycle
system.cpu1.commit.committed_per_cycle::7          639      0.12%     99.98% # Number of insts commited each cycle
system.cpu1.commit.committed_per_cycle::8          104      0.02%    100.00% # Number of insts commited each cycle
system.cpu1.commit.committed_per_cycle::overflows            0      0.00%    100.00% # Number of insts commited each cycle
system.cpu1.commit.committed_per_cycle::min_value            0                       # Number of insts commited each cycle
system.cpu1.commit.committed_per_cycle::max_value            8                       # Number of insts commited each cycle
system.cpu1.commit.committed_per_cycle::total       554975                       # Number of insts commited each cycle
system.cpu1.commit.fp_insts                         0                       # Number of committed floating point instructions.
system.cpu1.commit.function_calls                 148                       # Number of function calls committed.
system.cpu1.commit.int_insts                  1000020                       # Number of committed integer instructions.
system.cpu1.commit.loads                       166697                       # Number of loads committed
system.cpu1.commit.membars                         24                       # Number of memory barriers committed
system.cpu1.commit.op_class_0::No_OpClass            0      0.00%      0.00% # Class of committed instruction
system.cpu1.commit.op_class_0::IntAlu          832963     71.40%     71.40% # Class of committed instruction
system.cpu1.commit.op_class_0::IntMult             35      0.00%     71.40% # Class of committed instruction
system.cpu1.commit.op_class_0::IntDiv               0      0.00%     71.40% # Class of committed instruction
system.cpu1.commit.op_class_0::FloatAdd             0      0.00%     71.40% # Class of committed instruction
system.cpu1.commit.op_class_0::FloatCmp             0      0.00%     71.40% # Class of committed instruction
system.cpu1.commit.op_class_0::FloatCvt             0      0.00%     71.40% # Class of committed instruction
system.cpu1.commit.op_class_0::FloatMult            0      0.00%     71.40% # Class of committed instruction
system.cpu1.commit.op_class_0::FloatMultAcc            0      0.00%     71.40% # Class of committed instruction
system.cpu1.commit.op_class_0::FloatDiv             0      0.00%     71.40% # Class of committed instruction
system.cpu1.commit.op_class_0::FloatMisc            0      0.00%     71.40% # Class of committed instruction
system.cpu1.commit.op_class_0::FloatSqrt            0      0.00%     71.40% # Class of committed instruction
system.cpu1.commit.op_class_0::SimdAdd              0      0.00%     71.40% # Class of committed instruction
system.cpu1.commit.op_class_0::SimdAddAcc            0      0.00%     71.40% # Class of committed instruction
system.cpu1.commit.op_class_0::SimdAlu              0      0.00%     71.40% # Class of committed instruction
system.cpu1.commit.op_class_0::SimdCmp              0      0.00%     71.40% # Class of committed instruction
system.cpu1.commit.op_class_0::SimdCvt              0      0.00%     71.40% # Class of committed instruction
system.cpu1.commit.op_class_0::SimdMisc             0      0.00%     71.40% # Class of committed instruction
system.cpu1.commit.op_class_0::SimdMult             0      0.00%     71.40% # Class of committed instruction
system.cpu1.commit.op_class_0::SimdMultAcc            0      0.00%     71.40% # Class of committed instruction
system.cpu1.commit.op_class_0::SimdShift            0      0.00%     71.40% # Class of committed instruction
system.cpu1.commit.op_class_0::SimdShiftAcc            0      0.00%     71.40% # Class of committed instruction
system.cpu1.commit.op_class_0::SimdDiv              0      0.00%     71.40% # Class of committed instruction
system.cpu1.commit.op_class_0::SimdSqrt             0      0.00%     71.40% # Class of committed instruction
system.cpu1.commit.op_class_0::SimdFloatAdd            0      0.00%     71.40% # Class of committed instruction
system.cpu1.commit.op_class_0::SimdFloatAlu            0      0.00%     71.40% # Class of committed instruction
system.cpu1.commit.op_class_0::SimdFloatCmp            0      0.00%     71.40% # Class of committed instruction
system.cpu1.commit.op_class_0::SimdFloatCvt            2      0.00%     71.40% # Class of committed instruction
system.cpu1.commit.op_class_0::SimdFloatDiv            1      0.00%     71.40% # Class of committed instruction
system.cpu1.commit.op_class_0::SimdFloatMisc            2      0.00%     71.40% # Class of committed instruction
system.cpu1.commit.op_class_0::SimdFloatMult            1      0.00%     71.40% # Class of committed instruction
system.cpu1.commit.op_class_0::SimdFloatMultAcc            0      0.00%     71.40% # Class of committed instruction
system.cpu1.commit.op_class_0::SimdFloatSqrt            0      0.00%     71.40% # Class of committed instruction
system.cpu1.commit.op_class_0::SimdReduceAdd            0      0.00%     71.40% # Class of committed instruction
system.cpu1.commit.op_class_0::SimdReduceAlu            0      0.00%     71.40% # Class of committed instruction
system.cpu1.commit.op_class_0::SimdReduceCmp            0      0.00%     71.40% # Class of committed instruction
system.cpu1.commit.op_class_0::SimdFloatReduceAdd            0      0.00%     71.40% # Class of committed instruction
system.cpu1.commit.op_class_0::SimdFloatReduceCmp            0      0.00%     71.40% # Class of committed instruction
system.cpu1.commit.op_class_0::SimdAes              0      0.00%     71.40% # Class of committed instruction
system.cpu1.commit.op_class_0::SimdAesMix            0      0.00%     71.40% # Class of committed instruction
system.cpu1.commit.op_class_0::SimdSha1Hash            0      0.00%     71.40% # Class of committed instruction
system.cpu1.commit.op_class_0::SimdSha1Hash2            0      0.00%     71.40% # Class of committed instruction
system.cpu1.commit.op_class_0::SimdSha256Hash            0      0.00%     71.40% # Class of committed instruction
system.cpu1.commit.op_class_0::SimdSha256Hash2            0      0.00%     71.40% # Class of committed instruction
system.cpu1.commit.op_class_0::SimdShaSigma2            0      0.00%     71.40% # Class of committed instruction
system.cpu1.commit.op_class_0::SimdShaSigma3            0      0.00%     71.40% # Class of committed instruction
system.cpu1.commit.op_class_0::SimdPredAlu            0      0.00%     71.40% # Class of committed instruction
system.cpu1.commit.op_class_0::MemRead         166697     14.29%     85.69% # Class of committed instruction
system.cpu1.commit.op_class_0::MemWrite        166931     14.31%    100.00% # Class of committed instruction
system.cpu1.commit.op_class_0::FloatMemRead            0      0.00%    100.00% # Class of committed instruction
system.cpu1.commit.op_class_0::FloatMemWrite            0      0.00%    100.00% # Class of committed instruction
system.cpu1.commit.op_class_0::IprAccess            0      0.00%    100.00% # Class of committed instruction
system.cpu1.commit.op_class_0::InstPrefetch            0      0.00%    100.00% # Class of committed instruction
system.cpu1.commit.op_class_0::total          1166632                       # Class of committed instruction
system.cpu1.commit.refs                        333628                       # Number of memory references committed
system.cpu1.commit.swp_count                        0                       # Number of s/w prefetches committed
system.cpu1.commit.vec_insts                        0                       # Number of committed Vector instructions.
system.cpu1.committedInsts                    1000002                       # Number of Instructions Simulated
system.cpu1.committedOps                      1166619                       # Number of Ops (including micro ops) Simulated
system.cpu1.cpi                              0.585446                       # CPI: Cycles Per Instruction
system.cpu1.cpi_total                        0.585446                       # CPI: Total CPI of All Threads
system.cpu1.decode.BlockedCycles                46100                       # Number of cycles decode is blocked
system.cpu1.decode.BranchMispred                  220                       # Number of times decode detected a branch misprediction
system.cpu1.decode.BranchResolved              166004                       # Number of times decode resolved a branch
system.cpu1.decode.DecodedInsts               1173915                       # Number of instructions handled by decode
system.cpu1.decode.IdleCycles                    8200                       # Number of cycles decode is idle
system.cpu1.decode.RunCycles                   500020                       # Number of cycles decode is running
system.cpu1.decode.SquashCycles                   487                       # Number of cycles decode is squashing
system.cpu1.decode.SquashedInsts                 2545                       # Number of squashed instructions handled by decode
system.cpu1.decode.UnblockCycles                  948                       # Number of cycles decode is unblocking
system.cpu1.dtb.accesses                            0                       # DTB accesses
system.cpu1.dtb.align_faults                        0                       # Number of TLB faults due to alignment restrictions
system.cpu1.dtb.domain_faults                       0                       # Number of TLB faults due to domain restrictions
system.cpu1.dtb.flush_entries                       0                       # Number of entries that have been flushed from TLB
system.cpu1.dtb.flush_tlb                           0                       # Number of times complete TLB was flushed
system.cpu1.dtb.flush_tlb_asid                      0                       # Number of times TLB was flushed by ASID
system.cpu1.dtb.flush_tlb_mva                       0                       # Number of times TLB was flushed by MVA
system.cpu1.dtb.flush_tlb_mva_asid                  0                       # Number of times TLB was flushed by MVA & ASID
system.cpu1.dtb.hits                                0                       # DTB hits
system.cpu1.dtb.inst_accesses                       0                       # ITB inst accesses
system.cpu1.dtb.inst_hits                           0                       # ITB inst hits
system.cpu1.dtb.inst_misses                         0                       # ITB inst misses
system.cpu1.dtb.misses                              0                       # DTB misses
system.cpu1.dtb.perms_faults                        0                       # Number of TLB faults due to permissions restrictions
system.cpu1.dtb.prefetch_faults                     0                       # Number of TLB faults due to prefetch
system.cpu1.dtb.read_accesses                       0                       # DTB read accesses
system.cpu1.dtb.read_hits                           0                       # DTB read hits
system.cpu1.dtb.read_misses                         0                       # DTB read misses
system.cpu1.dtb.stage2_mmu.stage2_tlb.accesses            0                       # DTB accesses
system.cpu1.dtb.stage2_mmu.stage2_tlb.align_faults            0                       # Number of TLB faults due to alignment restrictions
system.cpu1.dtb.stage2_mmu.stage2_tlb.domain_faults            0                       # Number of TLB faults due to domain restrictions
system.cpu1.dtb.stage2_mmu.stage2_tlb.flush_entries            0                       # Number of entries that have been flushed from TLB
system.cpu1.dtb.stage2_mmu.stage2_tlb.flush_tlb            0                       # Number of times complete TLB was flushed
system.cpu1.dtb.stage2_mmu.stage2_tlb.flush_tlb_asid            0                       # Number of times TLB was flushed by ASID
system.cpu1.dtb.stage2_mmu.stage2_tlb.flush_tlb_mva            0                       # Number of times TLB was flushed by MVA
system.cpu1.dtb.stage2_mmu.stage2_tlb.flush_tlb_mva_asid            0                       # Number of times TLB was flushed by MVA & ASID
system.cpu1.dtb.stage2_mmu.stage2_tlb.hits            0                       # DTB hits
system.cpu1.dtb.stage2_mmu.stage2_tlb.inst_accesses            0                       # ITB inst accesses
system.cpu1.dtb.stage2_mmu.stage2_tlb.inst_hits            0                       # ITB inst hits
system.cpu1.dtb.stage2_mmu.stage2_tlb.inst_misses            0                       # ITB inst misses
system.cpu1.dtb.stage2_mmu.stage2_tlb.misses            0                       # DTB misses
system.cpu1.dtb.stage2_mmu.stage2_tlb.perms_faults            0                       # Number of TLB faults due to permissions restrictions
system.cpu1.dtb.stage2_mmu.stage2_tlb.prefetch_faults            0                       # Number of TLB faults due to prefetch
system.cpu1.dtb.stage2_mmu.stage2_tlb.read_accesses            0                       # DTB read accesses
system.cpu1.dtb.stage2_mmu.stage2_tlb.read_hits            0                       # DTB read hits
system.cpu1.dtb.stage2_mmu.stage2_tlb.read_misses            0                       # DTB read misses
system.cpu1.dtb.stage2_mmu.stage2_tlb.walker.walkRequestOrigin_Requested::Data            0                       # Table walker requests started/completed, data/inst
system.cpu1.dtb.stage2_mmu.stage2_tlb.walker.walkRequestOrigin_Requested::Inst            0                       # Table walker requests started/completed, data/inst
system.cpu1.dtb.stage2_mmu.stage2_tlb.walker.walkRequestOrigin_Requested::total            0                       # Table walker requests started/completed, data/inst
system.cpu1.dtb.stage2_mmu.stage2_tlb.walker.walkRequestOrigin_Completed::Data            0                       # Table walker requests started/completed, data/inst
system.cpu1.dtb.stage2_mmu.stage2_tlb.walker.walkRequestOrigin_Completed::Inst            0                       # Table walker requests started/completed, data/inst
system.cpu1.dtb.stage2_mmu.stage2_tlb.walker.walkRequestOrigin_Completed::total            0                       # Table walker requests started/completed, data/inst
system.cpu1.dtb.stage2_mmu.stage2_tlb.walker.walkRequestOrigin::total            0                       # Table walker requests started/completed, data/inst
system.cpu1.dtb.stage2_mmu.stage2_tlb.walker.walks            0                       # Table walker walks requested
system.cpu1.dtb.stage2_mmu.stage2_tlb.write_accesses            0                       # DTB write accesses
system.cpu1.dtb.stage2_mmu.stage2_tlb.write_hits            0                       # DTB write hits
system.cpu1.dtb.stage2_mmu.stage2_tlb.write_misses            0                       # DTB write misses
system.cpu1.dtb.walker.walkRequestOrigin_Requested::Data            0                       # Table walker requests started/completed, data/inst
system.cpu1.dtb.walker.walkRequestOrigin_Requested::Inst            0                       # Table walker requests started/completed, data/inst
system.cpu1.dtb.walker.walkRequestOrigin_Requested::total            0                       # Table walker requests started/completed, data/inst
system.cpu1.dtb.walker.walkRequestOrigin_Completed::Data            0                       # Table walker requests started/completed, data/inst
system.cpu1.dtb.walker.walkRequestOrigin_Completed::Inst            0                       # Table walker requests started/completed, data/inst
system.cpu1.dtb.walker.walkRequestOrigin_Completed::total            0                       # Table walker requests started/completed, data/inst
system.cpu1.dtb.walker.walkRequestOrigin::total            0                       # Table walker requests started/completed, data/inst
system.cpu1.dtb.walker.walks                        0                       # Table walker walks requested
system.cpu1.dtb.write_accesses                      0                       # DTB write accesses
system.cpu1.dtb.write_hits                          0                       # DTB write hits
system.cpu1.dtb.write_misses                        0                       # DTB write misses
system.cpu1.fetch.Branches                     168954                       # Number of branches that fetch encountered
system.cpu1.fetch.CacheLines                   335527                       # Number of cache lines fetched
system.cpu1.fetch.Cycles                       545767                       # Number of cycles fetch has run and was not squashing or blocked
system.cpu1.fetch.IcacheSquashes                  224                       # Number of outstanding Icache misses that were squashed
system.cpu1.fetch.IcacheWaitRetryStallCycles          376                       # Number of stall cycles due to full MSHR
system.cpu1.fetch.Insts                       1011349                       # Number of instructions fetch has processed
system.cpu1.fetch.MiscStallCycles                 229                       # Number of cycles fetch has spent waiting on interrupts, or bad addresses, or out of MSHRs
system.cpu1.fetch.SquashCycles                   1392                       # Number of cycles fetch has spent squashing
system.cpu1.fetch.branchRate                 0.288590                       # Number of branch fetches per cycle
system.cpu1.fetch.icacheStallCycles              8687                       # Number of cycles fetch is stalled on an Icache miss
system.cpu1.fetch.predictedBranches            166212                       # Number of branches that fetch has predicted taken
system.cpu1.fetch.rate                       1.727482                       # Number of inst fetches per cycle
system.cpu1.fetch.rateDist::samples            555755                       # Number of instructions fetched each cycle (Total)
system.cpu1.fetch.rateDist::mean             2.122066                       # Number of instructions fetched each cycle (Total)
system.cpu1.fetch.rateDist::stdev            1.121391                       # Number of instructions fetched each cycle (Total)
system.cpu1.fetch.rateDist::underflows              0      0.00%      0.00% # Number of instructions fetched each cycle (Total)
system.cpu1.fetch.rateDist::0                   50978      9.17%      9.17% # Number of instructions fetched each cycle (Total)
system.cpu1.fetch.rateDist::1                  166722     30.00%     39.17% # Number of instructions fetched each cycle (Total)
[...]
system.mem_ctrls.wrQLenPdf::39                      0                       # What write queue length does an incoming req see
system.mem_ctrls.wrQLenPdf::40                      0                       # What write queue length does an incoming req see
system.mem_ctrls.wrQLenPdf::41                      0                       # What write queue length does an incoming req see
system.mem_ctrls.wrQLenPdf::42                      0                       # What write queue length does an incoming req see
system.mem_ctrls.wrQLenPdf::43                      0                       # What write queue length does an incoming req see
system.mem_ctrls.wrQLenPdf::44                      0                       # What write queue length does an incoming req see
system.mem_ctrls.wrQLenPdf::45                      0                       # What write queue length does an incoming req see
system.mem_ctrls.wrQLenPdf::46                      0                       # What write queue length does an incoming req see
system.mem_ctrls.wrQLenPdf::47                      0                       # What write queue length does an incoming req see
system.mem_ctrls.wrQLenPdf::48                      0                       # What write queue length does an incoming req see
system.mem_ctrls.wrQLenPdf::49                      0                       # What write queue length does an incoming req see
system.mem_ctrls.wrQLenPdf::50                      0                       # What write queue length does an incoming req see
system.mem_ctrls.wrQLenPdf::51                      0                       # What write queue length does an incoming req see
system.mem_ctrls.wrQLenPdf::52                      0                       # What write queue length does an incoming req see
system.mem_ctrls.wrQLenPdf::53                      0                       # What write queue length does an incoming req see
system.mem_ctrls.wrQLenPdf::54                      0                       # What write queue length does an incoming req see
system.mem_ctrls.wrQLenPdf::55                      0                       # What write queue length does an incoming req see
system.mem_ctrls.wrQLenPdf::56                      0                       # What write queue length does an incoming req see
system.mem_ctrls.wrQLenPdf::57                      0                       # What write queue length does an incoming req see
system.mem_ctrls.wrQLenPdf::58                      0                       # What write queue length does an incoming req see
system.mem_ctrls.wrQLenPdf::59                      0                       # What write queue length does an incoming req see
system.mem_ctrls.wrQLenPdf::60                      0                       # What write queue length does an incoming req see
system.mem_ctrls.wrQLenPdf::61                      0                       # What write queue length does an incoming req see
system.mem_ctrls.wrQLenPdf::62                      0                       # What write queue length does an incoming req see
system.mem_ctrls.wrQLenPdf::63                      0                       # What write queue length does an incoming req see
system.mem_ctrls.bytesPerActivate::samples         1246                       # Bytes accessed per row activation
system.mem_ctrls.bytesPerActivate::mean    664.500803                       # Bytes accessed per row activation
system.mem_ctrls.bytesPerActivate::gmean   449.068121                       # Bytes accessed per row activation
system.mem_ctrls.bytesPerActivate::stdev   409.444117                       # Bytes accessed per row activation
system.mem_ctrls.bytesPerActivate::0-127          196     15.73%     15.73% # Bytes accessed per row activation
system.mem_ctrls.bytesPerActivate::128-255          145     11.64%     27.37% # Bytes accessed per row activation
system.mem_ctrls.bytesPerActivate::256-383           74      5.94%     33.31% # Bytes accessed per row activation
system.mem_ctrls.bytesPerActivate::384-511           60      4.82%     38.12% # Bytes accessed per row activation
system.mem_ctrls.bytesPerActivate::512-639           40      3.21%     41.33% # Bytes accessed per row activation
system.mem_ctrls.bytesPerActivate::640-767           27      2.17%     43.50% # Bytes accessed per row activation
system.mem_ctrls.bytesPerActivate::768-895           50      4.01%     47.51% # Bytes accessed per row activation
system.mem_ctrls.bytesPerActivate::896-1023           23      1.85%     49.36% # Bytes accessed per row activation
system.mem_ctrls.bytesPerActivate::1024-1151          631     50.64%    100.00% # Bytes accessed per row activation
system.mem_ctrls.bytesPerActivate::total         1246                       # Bytes accessed per row activation
system.mem_ctrls.bytesReadDRAM                 830592                       # Total number of bytes read from DRAM
system.mem_ctrls.bytesReadWrQ                       0                       # Total number of bytes read from write queue
system.mem_ctrls.bytesWritten                       0                       # Total number of bytes written to DRAM
system.mem_ctrls.bytesReadSys                  830592                       # Total read bytes from the system interface side
system.mem_ctrls.bytesWrittenSys                    0                       # Total written bytes from the system interface side
system.mem_ctrls.avgRdBW                      2837.47                       # Average DRAM read bandwidth in MiByte/s
system.mem_ctrls.avgWrBW                         0.00                       # Average achieved write bandwidth in MiByte/s
system.mem_ctrls.avgRdBWSys                   2837.47                       # Average system read bandwidth in MiByte/s
system.mem_ctrls.avgWrBWSys                      0.00                       # Average system write bandwidth in MiByte/s
system.mem_ctrls.peakBW                      12800.00                       # Theoretical peak bandwidth in MiByte/s
system.mem_ctrls.busUtil                        22.17                       # Data bus utilization in percentage
system.mem_ctrls.busUtilRead                    22.17                       # Data bus utilization in percentage for reads
system.mem_ctrls.busUtilWrite                    0.00                       # Data bus utilization in percentage for writes
system.mem_ctrls.totGap                     292712506                       # Total gap between requests
system.mem_ctrls.avgGap                      22554.52                       # Average gap between requests
system.mem_ctrls.masterReadBytes::.cpu0.inst        25024                       # Per-master bytes read from memory
system.mem_ctrls.masterReadBytes::.cpu0.data        37888                       # Per-master bytes read from memory
system.mem_ctrls.masterReadBytes::.cpu1.inst        21312                       # Per-master bytes read from memory
system.mem_ctrls.masterReadBytes::.cpu1.data        18816                       # Per-master bytes read from memory
system.mem_ctrls.masterReadBytes::.l2.prefetcher       727552                       # Per-master bytes read from memory
system.mem_ctrls.masterReadRate::.cpu0.inst 85486962.076775655150                       # Per-master bytes read from memory rate (Bytes/sec)
system.mem_ctrls.masterReadRate::.cpu0.data 129432945.139261350036                       # Per-master bytes read from memory rate (Bytes/sec)
system.mem_ctrls.masterReadRate::.cpu1.inst 72806031.640834510326                       # Per-master bytes read from memory rate (Bytes/sec)
system.mem_ctrls.masterReadRate::.cpu1.data 64279199.106322363019                       # Per-master bytes read from memory rate (Bytes/sec)
system.mem_ctrls.masterReadRate::.l2.prefetcher 2485462365.444464683533                       # Per-master bytes read from memory rate (Bytes/sec)
system.mem_ctrls.masterReadAccesses::.cpu0.inst          391                       # Per-master read serviced memory accesses
system.mem_ctrls.masterReadAccesses::.cpu0.data          592                       # Per-master read serviced memory accesses
system.mem_ctrls.masterReadAccesses::.cpu1.inst          333                       # Per-master read serviced memory accesses
system.mem_ctrls.masterReadAccesses::.cpu1.data          294                       # Per-master read serviced memory accesses
system.mem_ctrls.masterReadAccesses::.l2.prefetcher        11368                       # Per-master read serviced memory accesses
system.mem_ctrls.masterReadTotalLat::.cpu0.inst     12489150                       # Per-master read total memory access latency
system.mem_ctrls.masterReadTotalLat::.cpu0.data     22630172                       # Per-master read total memory access latency
system.mem_ctrls.masterReadTotalLat::.cpu1.inst     11103506                       # Per-master read total memory access latency
system.mem_ctrls.masterReadTotalLat::.cpu1.data     16010757                       # Per-master read total memory access latency
system.mem_ctrls.masterReadTotalLat::.l2.prefetcher    349885580                       # Per-master read total memory access latency
system.mem_ctrls.masterReadAvgLat::.cpu0.inst     31941.56                       # Per-master read average memory access latency
system.mem_ctrls.masterReadAvgLat::.cpu0.data     38226.64                       # Per-master read average memory access latency
system.mem_ctrls.masterReadAvgLat::.cpu1.inst     33343.86                       # Per-master read average memory access latency
system.mem_ctrls.masterReadAvgLat::.cpu1.data     54458.36                       # Per-master read average memory access latency
system.mem_ctrls.masterReadAvgLat::.l2.prefetcher     30778.11                       # Per-master read average memory access latency
system.mem_ctrls.pageHitRate                    90.35                       # Row buffer hit rate, read and write combined
system.mem_ctrls.rank1.actEnergy              4069800                       # Energy for activate commands per rank (pJ)
system.mem_ctrls.rank1.preEnergy              2155560                       # Energy for precharge commands per rank (pJ)
system.mem_ctrls.rank1.readEnergy            45053400                       # Energy for read commands per rank (pJ)
system.mem_ctrls.rank1.writeEnergy                  0                       # Energy for write commands per rank (pJ)
system.mem_ctrls.rank1.refreshEnergy     22741680.000000                       # Energy for refresh commands per rank (pJ)
system.mem_ctrls.rank1.actBackEnergy        130030110                       # Energy for active background per rank (pJ)
system.mem_ctrls.rank1.preBackEnergy          2906880                       # Energy for precharge background per rank (pJ)
system.mem_ctrls.rank1.actPowerDownEnergy            0                       # Energy for active power-down per rank (pJ)
system.mem_ctrls.rank1.prePowerDownEnergy            0                       # Energy for precharge power-down per rank (pJ)
system.mem_ctrls.rank1.selfRefreshEnergy            0                       # Energy for self refresh per rank (pJ)
system.mem_ctrls.rank1.totalEnergy          206957430                       # Total energy per rank (pJ)
system.mem_ctrls.rank1.averagePower        707.007751                       # Core power per rank (mW)
system.mem_ctrls.rank1.totalIdleTime                0                       # Total Idle time Per DRAM Rank
system.mem_ctrls.rank1.memoryStateTime::IDLE      6209012                       # Time in different power states
system.mem_ctrls.rank1.memoryStateTime::REF      9620000                       # Time in different power states
system.mem_ctrls.rank1.memoryStateTime::SREF            0                       # Time in different power states
system.mem_ctrls.rank1.memoryStateTime::PRE_PDN            0                       # Time in different power states
system.mem_ctrls.rank1.memoryStateTime::ACT    276893988                       # Time in different power states
system.mem_ctrls.rank1.memoryStateTime::ACT_PDN            0                       # Time in different power states
system.mem_ctrls.rank0.actEnergy              4869480                       # Energy for activate commands per rank (pJ)
system.mem_ctrls.rank0.preEnergy              2573010                       # Energy for precharge commands per rank (pJ)
system.mem_ctrls.rank0.readEnergy            47609520                       # Energy for read commands per rank (pJ)
system.mem_ctrls.rank0.writeEnergy                  0                       # Energy for write commands per rank (pJ)
system.mem_ctrls.rank0.refreshEnergy     22741680.000000                       # Energy for refresh commands per rank (pJ)
system.mem_ctrls.rank0.actBackEnergy        130678200                       # Energy for active background per rank (pJ)
system.mem_ctrls.rank0.preBackEnergy          2361120                       # Energy for precharge background per rank (pJ)
system.mem_ctrls.rank0.actPowerDownEnergy            0                       # Energy for active power-down per rank (pJ)
system.mem_ctrls.rank0.prePowerDownEnergy            0                       # Energy for precharge power-down per rank (pJ)
system.mem_ctrls.rank0.selfRefreshEnergy            0                       # Energy for self refresh per rank (pJ)
system.mem_ctrls.rank0.totalEnergy          210833010                       # Total energy per rank (pJ)
system.mem_ctrls.rank0.averagePower        720.247504                       # Core power per rank (mW)
system.mem_ctrls.rank0.totalIdleTime                0                       # Total Idle time Per DRAM Rank
system.mem_ctrls.rank0.memoryStateTime::IDLE      4971788                       # Time in different power states
system.mem_ctrls.rank0.memoryStateTime::REF      9620000                       # Time in different power states
system.mem_ctrls.rank0.memoryStateTime::SREF            0                       # Time in different power states
system.mem_ctrls.rank0.memoryStateTime::PRE_PDN            0                       # Time in different power states
system.mem_ctrls.rank0.memoryStateTime::ACT    278131212                       # Time in different power states
system.mem_ctrls.rank0.memoryStateTime::ACT_PDN            0                       # Time in different power states
system.cpu_clk_domain.clock                       500                       # Clock period in ticks
system.tol2bus.pwrStateResidencyTicks::UNDEFINED    292723000                       # Cumulative time (in ticks) in various power states
system.tol2bus.trans_dist::ReadResp              1223                       # Transaction distribution
system.tol2bus.trans_dist::WritebackDirty         9969                       # Transaction distribution
system.tol2bus.trans_dist::WritebackClean          325                       # Transaction distribution
system.tol2bus.trans_dist::HardPFReq            13141                       # Transaction distribution
system.tol2bus.trans_dist::ReadExReq            11717                       # Transaction distribution
system.tol2bus.trans_dist::ReadExResp           11716                       # Transaction distribution
system.tol2bus.trans_dist::ReadCleanReq           763                       # Transaction distribution
system.tol2bus.trans_dist::ReadSharedReq          460                       # Transaction distribution
system.tol2bus.pkt_count_system.cpu0.icache.mem_side::system.l2.cpu_side          925                       # Packet count per connected master and slave (bytes)
system.tol2bus.pkt_count_system.cpu0.dcache.mem_side::system.l2.cpu_side         4064                       # Packet count per connected master and slave (bytes)
system.tol2bus.pkt_count_system.cpu1.icache.mem_side::system.l2.cpu_side          767                       # Packet count per connected master and slave (bytes)
system.tol2bus.pkt_count_system.cpu1.dcache.mem_side::system.l2.cpu_side        30417                       # Packet count per connected master and slave (bytes)
system.tol2bus.pkt_count::total                 36173                       # Packet count per connected master and slave (bytes)
system.tol2bus.pkt_size_system.cpu0.icache.mem_side::system.l2.cpu_side        32768                       # Cumulative packet size per connected master and slave (bytes)
system.tol2bus.pkt_size_system.cpu0.dcache.mem_side::system.l2.cpu_side       151552                       # Cumulative packet size per connected master and slave (bytes)
system.tol2bus.pkt_size_system.cpu1.icache.mem_side::system.l2.cpu_side        26688                       # Cumulative packet size per connected master and slave (bytes)
system.tol2bus.pkt_size_system.cpu1.dcache.mem_side::system.l2.cpu_side      1275904                       # Cumulative packet size per connected master and slave (bytes)
system.tol2bus.pkt_size::total                1486912                       # Cumulative packet size per connected master and slave (bytes)
system.tol2bus.snoops                           13141                       # Total snoops (count)
system.tol2bus.snoopTraffic                         0                       # Total snoop traffic (bytes)
system.tol2bus.snoop_fanout::samples            26081                       # Request fanout histogram
system.tol2bus.snoop_fanout::mean            0.002991                       # Request fanout histogram
system.tol2bus.snoop_fanout::stdev           0.054606                       # Request fanout histogram
system.tol2bus.snoop_fanout::underflows             0      0.00%      0.00% # Request fanout histogram
system.tol2bus.snoop_fanout::0                  26003     99.70%     99.70% # Request fanout histogram
system.tol2bus.snoop_fanout::1                     78      0.30%    100.00% # Request fanout histogram
system.tol2bus.snoop_fanout::2                      0      0.00%    100.00% # Request fanout histogram
system.tol2bus.snoop_fanout::3                      0      0.00%    100.00% # Request fanout histogram
system.tol2bus.snoop_fanout::4                      0      0.00%    100.00% # Request fanout histogram
system.tol2bus.snoop_fanout::5                      0      0.00%    100.00% # Request fanout histogram
system.tol2bus.snoop_fanout::6                      0      0.00%    100.00% # Request fanout histogram
system.tol2bus.snoop_fanout::7                      0      0.00%    100.00% # Request fanout histogram
system.tol2bus.snoop_fanout::8                      0      0.00%    100.00% # Request fanout histogram
system.tol2bus.snoop_fanout::overflows              0      0.00%    100.00% # Request fanout histogram
system.tol2bus.snoop_fanout::min_value              0                       # Request fanout histogram
system.tol2bus.snoop_fanout::max_value              1                       # Request fanout histogram
system.tol2bus.snoop_fanout::total              26081                       # Request fanout histogram
system.tol2bus.reqLayer0.occupancy           21911000                       # Layer occupancy (ticks)
system.tol2bus.reqLayer0.utilization              7.5                       # Layer utilization (%)
system.tol2bus.respLayer5.occupancy          15720998                       # Layer occupancy (ticks)
system.tol2bus.respLayer5.utilization             5.4                       # Layer utilization (%)
system.tol2bus.respLayer4.occupancy            525998                       # Layer occupancy (ticks)
system.tol2bus.respLayer4.utilization             0.2                       # Layer utilization (%)
system.tol2bus.respLayer1.occupancy           2547493                       # Layer occupancy (ticks)
system.tol2bus.respLayer1.utilization             0.9                       # Layer utilization (%)
system.tol2bus.respLayer0.occupancy            619999                       # Layer occupancy (ticks)
system.tol2bus.respLayer0.utilization             0.2                       # Layer utilization (%)

---------- End Simulation Statistics   ----------
