
---------- Begin Simulation Statistics ----------
final_tick                                25011225000                       # Number of ticks from beginning of simulation (restored from checkpoints and never reset)
host_inst_rate                                 204791                       # Simulator instruction rate (inst/s)
host_mem_usage                                 696416                       # Number of bytes of host memory used
host_op_rate                                   218357                       # Simulator op (including micro ops) rate (op/s)
host_seconds                                   354.00                       # Real time elapsed on the host
host_tick_rate                               70653737                       # Simulator tick rate (ticks/s)
sim_freq                                 1000000000000                       # Frequency of simulated ticks
sim_insts                                    72495453                       # Number of instructions simulated
sim_ops                                      77297624                       # Number of ops (including micro ops) simulated
sim_seconds                                  0.025011                       # Number of seconds simulated
sim_ticks                                 25011225000                       # Number of ticks simulated
system.cpu.branchPred.BTBCorrect                    0                       # Number of correct BTB predictions (this stat may not work properly.
system.cpu.branchPred.BTBHitPct             88.486713                       # BTB Hit Percentage
system.cpu.branchPred.BTBHits                 4935688                       # Number of BTB hits
system.cpu.branchPred.BTBLookups              5577886                       # Number of BTB lookups
system.cpu.branchPred.RASInCorrect                162                       # Number of incorrect RAS predictions.
system.cpu.branchPred.condIncorrect            141156                       # Number of conditional branches incorrect
system.cpu.branchPred.condPredicted           6884750                       # Number of conditional branches predicted
system.cpu.branchPred.indirectHits             484521                       # Number of indirect target hits.
system.cpu.branchPred.indirectLookups          485894                       # Number of indirect predictor lookups.
system.cpu.branchPred.indirectMisses             1373                       # Number of indirect misses.
system.cpu.branchPred.lookups                11010879                       # Number of BP lookups
system.cpu.branchPred.usedRAS                 1817946                       # Number of times the RAS was used to get a target.
system.cpu.branchPredindirectMispredicted        56799                       # Number of mispredicted indirect branches.
system.cpu.cc_regfile_reads                 263296179                       # number of cc regfile reads
system.cpu.cc_regfile_writes                 39022531                       # number of cc regfile writes
system.cpu.commit.amos                              0                       # Number of atomic instructions committed
system.cpu.commit.branchMispredicts            140677                       # The number of times a branch was mispredicted
system.cpu.commit.branches                   10448019                       # Number of branches committed
system.cpu.commit.bw_lim_events               1697811                       # number cycles where commit BW limit reached
system.cpu.commit.commitNonSpecStalls             117                       # The number of times commit has been forced to stall to communicate backwards
system.cpu.commit.commitSquashedInsts         2450849                       # The number of squashed insts skipped by commit
system.cpu.commit.committedInsts             72495453                       # Number of instructions committed
system.cpu.commit.committedOps               77297624                       # Number of ops (including micro ops) committed
system.cpu.commit.committed_per_cycle::samples     39602710                       # Number of insts commited each cycle
system.cpu.commit.committed_per_cycle::mean     1.951827                       # Number of insts commited each cycle
system.cpu.commit.committed_per_cycle::stdev     1.965597                       # Number of insts commited each cycle
system.cpu.commit.committed_per_cycle::underflows            0      0.00%      0.00% # Number of insts commited each cycle
system.cpu.commit.committed_per_cycle::0      7019777     17.73%     17.73% # Number of insts commited each cycle
system.cpu.commit.committed_per_cycle::1     15538281     39.24%     56.96% # Number of insts commited each cycle
system.cpu.commit.committed_per_cycle::2      7211463     18.21%     75.17% # Number of insts commited each cycle
system.cpu.commit.committed_per_cycle::3      2795897      7.06%     82.23% # Number of insts commited each cycle
system.cpu.commit.committed_per_cycle::4      2921887      7.38%     89.61% # Number of insts commited each cycle
system.cpu.commit.committed_per_cycle::5      1319086      3.33%     92.94% # Number of insts commited each cycle
system.cpu.commit.committed_per_cycle::6       606296      1.53%     94.47% # Number of insts commited each cycle
system.cpu.commit.committed_per_cycle::7       492212      1.24%     95.71% # Number of insts commited each cycle
system.cpu.commit.committed_per_cycle::8      1697811      4.29%    100.00% # Number of insts commited each cycle
system.cpu.commit.committed_per_cycle::overflows            0      0.00%    100.00% # Number of insts commited each cycle
system.cpu.commit.committed_per_cycle::min_value            0                       # Number of insts commited each cycle
system.cpu.commit.committed_per_cycle::max_value            8                       # Number of insts commited each cycle
system.cpu.commit.committed_per_cycle::total     39602710                       # Number of insts commited each cycle
system.cpu.commit.fp_insts                          0                       # Number of committed floating point instructions.
system.cpu.commit.function_calls              2070498                       # Number of function calls committed.
system.cpu.commit.int_insts                  71605204                       # Number of committed integer instructions.
system.cpu.commit.loads                       8669916                       # Number of loads committed
system.cpu.commit.membars                          52                       # Number of memory barriers committed
system.cpu.commit.op_class_0::No_OpClass            0      0.00%      0.00% # Class of committed instruction
system.cpu.commit.op_class_0::IntAlu         62456086     80.80%     80.80% # Class of committed instruction
system.cpu.commit.op_class_0::IntMult          913677      1.18%     81.98% # Class of committed instruction
system.cpu.commit.op_class_0::IntDiv                0      0.00%     81.98% # Class of committed instruction
system.cpu.commit.op_class_0::FloatAdd              0      0.00%     81.98% # Class of committed instruction
system.cpu.commit.op_class_0::FloatCmp              0      0.00%     81.98% # Class of committed instruction
system.cpu.commit.op_class_0::FloatCvt              0      0.00%     81.98% # Class of committed instruction
system.cpu.commit.op_class_0::FloatMult             0      0.00%     81.98% # Class of committed instruction
system.cpu.commit.op_class_0::FloatMultAcc            0      0.00%     81.98% # Class of committed instruction
system.cpu.commit.op_class_0::FloatDiv              0      0.00%     81.98% # Class of committed instruction
system.cpu.commit.op_class_0::FloatMisc             0      0.00%     81.98% # Class of committed instruction
system.cpu.commit.op_class_0::FloatSqrt             0      0.00%     81.98% # Class of committed instruction
system.cpu.commit.op_class_0::SimdAdd               0      0.00%     81.98% # Class of committed instruction
system.cpu.commit.op_class_0::SimdAddAcc            0      0.00%     81.98% # Class of committed instruction
system.cpu.commit.op_class_0::SimdAlu               0      0.00%     81.98% # Class of committed instruction
system.cpu.commit.op_class_0::SimdCmp               0      0.00%     81.98% # Class of committed instruction
system.cpu.commit.op_class_0::SimdCvt               0      0.00%     81.98% # Class of committed instruction
system.cpu.commit.op_class_0::SimdMisc              0      0.00%     81.98% # Class of committed instruction
system.cpu.commit.op_class_0::SimdMult              0      0.00%     81.98% # Class of committed instruction
system.cpu.commit.op_class_0::SimdMultAcc            0      0.00%     81.98% # Class of committed instruction
system.cpu.commit.op_class_0::SimdShift             0      0.00%     81.98% # Class of committed instruction
system.cpu.commit.op_class_0::SimdShiftAcc            0      0.00%     81.98% # Class of committed instruction
system.cpu.commit.op_class_0::SimdDiv               0      0.00%     81.98% # Class of committed instruction
system.cpu.commit.op_class_0::SimdSqrt              0      0.00%     81.98% # Class of committed instruction
system.cpu.commit.op_class_0::SimdFloatAdd            0      0.00%     81.98% # Class of committed instruction
system.cpu.commit.op_class_0::SimdFloatAlu            0      0.00%     81.98% # Class of committed instruction
system.cpu.commit.op_class_0::SimdFloatCmp            0      0.00%     81.98% # Class of committed instruction
system.cpu.commit.op_class_0::SimdFloatCvt            0      0.00%     81.98% # Class of committed instruction
system.cpu.commit.op_class_0::SimdFloatDiv            0      0.00%     81.98% # Class of committed instruction
system.cpu.commit.op_class_0::SimdFloatMisc            4      0.00%     81.98% # Class of committed instruction
system.cpu.commit.op_class_0::SimdFloatMult            0      0.00%     81.98% # Class of committed instruction
system.cpu.commit.op_class_0::SimdFloatMultAcc            0      0.00%     81.98% # Class of committed instruction
system.cpu.commit.op_class_0::SimdFloatSqrt            0      0.00%     81.98% # Class of committed instruction
system.cpu.commit.op_class_0::SimdReduceAdd            0      0.00%     81.98% # Class of committed instruction
system.cpu.commit.op_class_0::SimdReduceAlu            0      0.00%     81.98% # Class of committed instruction
system.cpu.commit.op_class_0::SimdReduceCmp            0      0.00%     81.98% # Class of committed instruction
system.cpu.commit.op_class_0::SimdFloatReduceAdd            0      0.00%     81.98% # Class of committed instruction
system.cpu.commit.op_class_0::SimdFloatReduceCmp            0      0.00%     81.98% # Class of committed instruction
system.cpu.commit.op_class_0::SimdAes               0      0.00%     81.98% # Class of committed instruction
system.cpu.commit.op_class_0::SimdAesMix            0      0.00%     81.98% # Class of committed instruction
system.cpu.commit.op_class_0::SimdSha1Hash            0      0.00%     81.98% # Class of committed instruction
system.cpu.commit.op_class_0::SimdSha1Hash2            0      0.00%     81.98% # Class of committed instruction
system.cpu.commit.op_class_0::SimdSha256Hash            0      0.00%     81.98% # Class of committed instruction
system.cpu.commit.op_class_0::SimdSha256Hash2            0      0.00%     81.98% # Class of committed instruction
system.cpu.commit.op_class_0::SimdShaSigma2            0      0.00%     81.98% # Class of committed instruction
system.cpu.commit.op_class_0::SimdShaSigma3            0      0.00%     81.98% # Class of committed instruction
system.cpu.commit.op_class_0::SimdPredAlu            0      0.00%     81.98% # Class of committed instruction
system.cpu.commit.op_class_0::MemRead         8669916     11.22%     93.20% # Class of committed instruction
system.cpu.commit.op_class_0::MemWrite        5257941      6.80%    100.00% # Class of committed instruction
system.cpu.commit.op_class_0::FloatMemRead            0      0.00%    100.00% # Class of committed instruction
system.cpu.commit.op_class_0::FloatMemWrite            0      0.00%    100.00% # Class of committed instruction
system.cpu.commit.op_class_0::IprAccess             0      0.00%    100.00% # Class of committed instruction
system.cpu.commit.op_class_0::InstPrefetch            0      0.00%    100.00% # Class of committed instruction
system.cpu.commit.op_class_0::total          77297624                       # Class of committed instruction
system.cpu.commit.refs                       13927857                       # Number of memory references committed
system.cpu.commit.swp_count                         0                       # Number of s/w prefetches committed
system.cpu.commit.vec_insts                         0                       # Number of committed Vector instructions.
system.cpu.committedInsts                    72495453                       # Number of Instructions Simulated
system.cpu.committedOps                      77297624                       # Number of Ops (including micro ops) Simulated
system.cpu.cpi                               0.552006                       # CPI: Cycles Per Instruction
system.cpu.cpi_total                         0.552006                       # CPI: Total CPI of All Threads
system.cpu.decode.BlockedCycles               2051662                       # Number of cycles decode is blocked
system.cpu.decode.BranchMispred                   498                       # Number of times decode detected a branch misprediction
system.cpu.decode.BranchResolved              5020969                       # Number of times decode resolved a branch
system.cpu.decode.DecodedInsts               80907134                       # Number of instructions handled by decode
system.cpu.decode.IdleCycles                  1782714                       # Number of cycles decode is idle
system.cpu.decode.RunCycles                  34346560                       # Number of cycles decode is running
system.cpu.decode.SquashCycles                 141309                       # Number of cycles decode is squashing
system.cpu.decode.SquashedInsts                561223                       # Number of squashed instructions handled by decode
system.cpu.decode.UnblockCycles               1655150                       # Number of cycles decode is unblocking
system.cpu.dtb.accesses                             0                       # DTB accesses
system.cpu.dtb.align_faults                         0                       # Number of TLB faults due to alignment restrictions
system.cpu.dtb.domain_faults                        0                       # Number of TLB faults due to domain restrictions
system.cpu.dtb.flush_entries                        0                       # Number of entries that have been flushed from TLB
system.cpu.dtb.flush_tlb                            0                       # Number of times complete TLB was flushed
system.cpu.dtb.flush_tlb_asid                       0                       # Number of times TLB was flushed by ASID
system.cpu.dtb.flush_tlb_mva                        0                       # Number of times TLB was flushed by MVA
system.cpu.dtb.flush_tlb_mva_asid                   0                       # Number of times TLB was flushed by MVA & ASID
system.cpu.dtb.hits                                 0                       # DTB hits
system.cpu.dtb.inst_accesses                        0                       # ITB inst accesses
system.cpu.dtb.inst_hits                            0                       # ITB inst hits
system.cpu.dtb.inst_misses                          0                       # ITB inst misses
system.cpu.dtb.misses                               0                       # DTB misses
system.cpu.dtb.perms_faults                         0                       # Number of TLB faults due to permissions restrictions
system.cpu.dtb.prefetch_faults                      0                       # Number of TLB faults due to prefetch
system.cpu.dtb.read_accesses                        0                       # DTB read accesses
system.cpu.dtb.read_hits                            0                       # DTB read hits
system.cpu.dtb.read_misses                          0                       # DTB read misses
system.cpu.dtb.stage2_mmu.stage2_tlb.accesses            0                       # DTB accesses
system.cpu.dtb.stage2_mmu.stage2_tlb.align_faults            0                       # Number of TLB faults due to alignment restrictions
system.cpu.dtb.stage2_mmu.stage2_tlb.domain_faults            0                       # Number of TLB faults due to domain restrictions
system.cpu.dtb.stage2_mmu.stage2_tlb.flush_entries            0                       # Number of entries that have been flushed from TLB
system.cpu.dtb.stage2_mmu.stage2_tlb.flush_tlb            0                       # Number of times complete TLB was flushed
system.cpu.dtb.stage2_mmu.stage2_tlb.flush_tlb_asid            0                       # Number of times TLB was flushed by ASID
system.cpu.dtb.stage2_mmu.stage2_tlb.flush_tlb_mva            0                       # Number of times TLB was flushed by MVA
system.cpu.dtb.stage2_mmu.stage2_tlb.flush_tlb_mva_asid            0                       # Number of times TLB was flushed by MVA & ASID
system.cpu.dtb.stage2_mmu.stage2_tlb.hits            0                       # DTB hits
system.cpu.dtb.stage2_mmu.stage2_tlb.inst_accesses            0                       # ITB inst accesses
system.cpu.dtb.stage2_mmu.stage2_tlb.inst_hits            0                       # ITB inst hits
system.cpu.dtb.stage2_mmu.stage2_tlb.inst_misses            0                       # ITB inst misses
system.cpu.dtb.stage2_mmu.stage2_tlb.misses            0                       # DTB misses
system.cpu.dtb.stage2_mmu.stage2_tlb.perms_faults            0                       # Number of TLB faults due to permissions restrictions
system.cpu.dtb.stage2_mmu.stage2_tlb.prefetch_faults            0                       # Number of TLB faults due to prefetch
system.cpu.dtb.stage2_mmu.stage2_tlb.read_accesses            0                       # DTB read accesses
system.cpu.dtb.stage2_mmu.stage2_tlb.read_hits            0                       # DTB read hits
system.cpu.dtb.stage2_mmu.stage2_tlb.read_misses            0                       # DTB read misses
system.cpu.dtb.stage2_mmu.stage2_tlb.walker.walkRequestOrigin_Requested::Data            0                       # Table walker requests started/completed, data/inst
system.cpu.dtb.stage2_mmu.stage2_tlb.walker.walkRequestOrigin_Requested::Inst            0                       # Table walker requests started/completed, data/inst
system.cpu.dtb.stage2_mmu.stage2_tlb.walker.walkRequestOrigin_Requested::total            0                       # Table walker requests started/completed, data/inst
system.cpu.dtb.stage2_mmu.stage2_tlb.walker.walkRequestOrigin_Completed::Data            0                       # Table walker requests started/completed, data/inst
system.cpu.dtb.stage2_mmu.stage2_tlb.walker.walkRequestOrigin_Completed::Inst            0                       # Table walker requests started/completed, data/inst
system.cpu.dtb.stage2_mmu.stage2_tlb.walker.walkRequestOrigin_Completed::total            0                       # Table walker requests started/completed, data/inst
system.cpu.dtb.stage2_mmu.stage2_tlb.walker.walkRequestOrigin::total            0                       # Table walker requests started/completed, data/inst
system.cpu.dtb.stage2_mmu.stage2_tlb.walker.walks            0                       # Table walker walks requested
system.cpu.dtb.stage2_mmu.stage2_tlb.write_accesses            0                       # DTB write accesses
system.cpu.dtb.stage2_mmu.stage2_tlb.write_hits            0                       # DTB write hits
system.cpu.dtb.stage2_mmu.stage2_tlb.write_misses            0                       # DTB write misses
system.cpu.dtb.walker.walkRequestOrigin_Requested::Data            0                       # Table walker requests started/completed, data/inst
system.cpu.dtb.walker.walkRequestOrigin_Requested::Inst            0                       # Table walker requests started/completed, data/inst
system.cpu.dtb.walker.walkRequestOrigin_Requested::total            0                       # Table walker requests started/completed, data/inst
system.cpu.dtb.walker.walkRequestOrigin_Completed::Data            0                       # Table walker requests started/completed, data/inst
system.cpu.dtb.walker.walkRequestOrigin_Completed::Inst            0                       # Table walker requests started/completed, data/inst
system.cpu.dtb.walker.walkRequestOrigin_Completed::total            0                       # Table walker requests started/completed, data/inst
system.cpu.dtb.walker.walkRequestOrigin::total            0                       # Table walker requests started/completed, data/inst
system.cpu.dtb.walker.walks                         0                       # Table walker walks requested
system.cpu.dtb.write_accesses                       0                       # DTB write accesses
system.cpu.dtb.write_hits                           0                       # DTB write hits
system.cpu.dtb.write_misses                         0                       # DTB write misses
system.cpu.fetch.Branches                    11010879                       # Number of branches that fetch encountered
system.cpu.fetch.CacheLines                  24516879                       # Number of cache lines fetched
system.cpu.fetch.Cycles                      39676884                       # Number of cycles fetch has run and was not squashing or blocked
system.cpu.fetch.IcacheSquashes                   526                       # Number of outstanding Icache misses that were squashed
system.cpu.fetch.IcacheWaitRetryStallCycles          771                       # Number of stall cycles due to full MSHR
system.cpu.fetch.Insts                       76975620                       # Number of instructions fetch has processed
system.cpu.fetch.MiscStallCycles                  258                       # Number of cycles fetch has spent waiting on interrupts, or bad addresses, or out of MSHRs
system.cpu.fetch.PendingTrapStallCycles            87                       # Number of stall cycles due to pending traps
system.cpu.fetch.SquashCycles                  283586                       # Number of cycles fetch has spent squashing
system.cpu.fetch.branchRate                  0.275148                       # Number of branch fetches per cycle
system.cpu.fetch.icacheStallCycles             157602                       # Number of cycles fetch is stalled on an Icache miss
system.cpu.fetch.predictedBranches            7238155                       # Number of branches that fetch has predicted taken
system.cpu.fetch.rate                        1.923527                       # Number of inst fetches per cycle
system.cpu.fetch.rateDist::samples           39977395                       # Number of instructions fetched each cycle (Total)
system.cpu.fetch.rateDist::mean              2.047122                       # Number of instructions fetched each cycle (Total)
system.cpu.fetch.rateDist::stdev             0.983898                       # Number of instructions fetched each cycle (Total)
system.cpu.fetch.rateDist::underflows               0      0.00%      0.00% # Number of instructions fetched each cycle (Total)
system.cpu.fetch.rateDist::0                   311678      0.78%      0.78% # Number of instructions fetched each cycle (Total)
system.cpu.fetch.rateDist::1                 17517618     43.82%     44.60% # Number of instructions fetched each cycle (Total)
system.cpu.fetch.rateDist::2                  2123315      5.31%     49.91% # Number of instructions fetched each cycle (Total)
system.cpu.fetch.rateDist::3                 20024784     50.09%    100.00% # Number of instructions fetched each cycle (Total)
system.cpu.fetch.rateDist::overflows                0      0.00%    100.00% # Number of instructions fetched each cycle (Total)
system.cpu.fetch.rateDist::min_value                0                       # Number of instructions fetched each cycle (Total)
system.cpu.fetch.rateDist::max_value                3                       # Number of instructions fetched each cycle (Total)
system.cpu.fetch.rateDist::total             39977395                       # Number of instructions fetched each cycle (Total)
system.cpu.idleCycles                           40566                       # Total number of cycles that the CPU has spent unscheduled due to idling
system.cpu.iew.branchMispredicts               148538                       # Number of branch mispredicts detected at execute
system.cpu.iew.exec_branches                 10535598                       # Number of branches executed
system.cpu.iew.exec_nop                             3                       # number of nop insts executed
system.cpu.iew.exec_rate                     1.957738                       # Inst execution rate
system.cpu.iew.exec_refs                     14130494                       # number of memory reference insts executed
system.cpu.iew.exec_stores                    5261160                       # Number of stores executed
system.cpu.iew.exec_swp                             0                       # number of swp insts executed
system.cpu.iew.iewBlockCycles                  233967                       # Number of cycles IEW is blocking
system.cpu.iew.iewBranchMispredictRate       1.409868                       # Percentage of branch mispredicts
system.cpu.iew.iewBranchPercentage          13.447754                       # Percentage of branches executed
system.cpu.iew.iewDispLoadInsts               9028544                       # Number of dispatched load instructions
system.cpu.iew.iewDispNonSpecInsts                 69                       # Number of dispatched non-speculative instructions
system.cpu.iew.iewDispSquashedInsts                 0                       # Number of squashed instructions skipped by dispatch
system.cpu.iew.iewDispStoreInsts              5327677                       # Number of dispatched store instructions
system.cpu.iew.iewDispatchedInsts            80013627                       # Number of instructions dispatched to IQ
system.cpu.iew.iewExecLoadInsts               8869334                       # Number of load instructions executed
system.cpu.iew.iewExecSquashedInsts            164384                       # Number of squashed instructions skipped in execute
system.cpu.iew.iewExecutedInsts              78344667                       # Number of executed instructions
system.cpu.iew.iewIQFullEvents                      2                       # Number of times the IQ has become full, causing a stall
system.cpu.iew.iewIdleCycles                        0                       # Number of cycles IEW is idle
system.cpu.iew.iewLSQFullEvents                   130                       # Number of times the LSQ has become full, causing a stall
system.cpu.iew.iewSquashCycles                 141309                       # Number of cycles IEW is squashing
system.cpu.iew.iewUnblockCycles                   134                       # Number of cycles IEW is unblocking
system.cpu.iew.lsq.thread0.blockedLoads             0                       # Number of blocked loads due to partial load-store forwarding
system.cpu.iew.lsq.thread0.cacheBlocked            55                       # Number of times an access to memory failed due to the cache being blocked
system.cpu.iew.lsq.thread0.forwLoads           892572                       # Number of loads that had data forwarded from stores
system.cpu.iew.lsq.thread0.ignoredResponses           57                       # Number of memory responses ignored because the instruction is squashed
system.cpu.iew.lsq.thread0.invAddrLoads             0                       # Number of loads ignored due to an invalid address
system.cpu.iew.lsq.thread0.invAddrSwpfs             0                       # Number of software prefetches ignored due to an invalid address
system.cpu.iew.lsq.thread0.memOrderViolation          651                       # Number of memory ordering violations
system.cpu.iew.lsq.thread0.rescheduledLoads         7431                       # Number of loads that were rescheduled
system.cpu.iew.lsq.thread0.squashedLoads       358628                       # Number of loads squashed
system.cpu.iew.lsq.thread0.squashedStores        69736                       # Number of stores squashed
system.cpu.iew.memOrderViolationEvents            651                       # Number of memory order violations
system.cpu.iew.predictedNotTakenIncorrect        32599                       # Number of branches that were predicted not taken incorrectly
system.cpu.iew.predictedTakenIncorrect         115939                       # Number of branches that were predicted taken incorrectly
system.cpu.iew.wb_consumers                 124779580                       # num instructions consuming a value
system.cpu.iew.wb_count                      78281611                       # cumulative count of insts written-back
system.cpu.iew.wb_fanout                     0.474531                       # average fanout of values written-back
system.cpu.iew.wb_producers                  59211837                       # num instructions producing a value
system.cpu.iew.wb_rate                       1.956162                       # insts written-back per cycle
system.cpu.iew.wb_sent                       78297058                       # cumulative count of insts sent to commit
system.cpu.int_regfile_reads                 94735283                       # number of integer regfile reads
system.cpu.int_regfile_writes                55483958                       # number of integer regfile writes
system.cpu.ipc                               1.811573                       # IPC: Instructions Per Cycle
system.cpu.ipc_total                         1.811573                       # IPC: Total IPC of All Threads
system.cpu.iq.FU_type_0::No_OpClass                 7      0.00%      0.00% # Type of FU issued
system.cpu.iq.FU_type_0::IntAlu              63369749     80.72%     80.72% # Type of FU issued
system.cpu.iq.FU_type_0::IntMult               934395      1.19%     81.91% # Type of FU issued
system.cpu.iq.FU_type_0::IntDiv                     0      0.00%     81.91% # Type of FU issued
system.cpu.iq.FU_type_0::FloatAdd                   0      0.00%     81.91% # Type of FU issued
system.cpu.iq.FU_type_0::FloatCmp                   0      0.00%     81.91% # Type of FU issued
system.cpu.iq.FU_type_0::FloatCvt                   0      0.00%     81.91% # Type of FU issued
system.cpu.iq.FU_type_0::FloatMult                  0      0.00%     81.91% # Type of FU issued
system.cpu.iq.FU_type_0::FloatMultAcc               0      0.00%     81.91% # Type of FU issued
system.cpu.iq.FU_type_0::FloatDiv                   0      0.00%     81.91% # Type of FU issued
system.cpu.iq.FU_type_0::FloatMisc                  0      0.00%     81.91% # Type of FU issued
system.cpu.iq.FU_type_0::FloatSqrt                  0      0.00%     81.91% # Type of FU issued
system.cpu.iq.FU_type_0::SimdAdd                    0      0.00%     81.91% # Type of FU issued
system.cpu.iq.FU_type_0::SimdAddAcc                 0      0.00%     81.91% # Type of FU issued
system.cpu.iq.FU_type_0::SimdAlu                    0      0.00%     81.91% # Type of FU issued
system.cpu.iq.FU_type_0::SimdCmp                    0      0.00%     81.91% # Type of FU issued
system.cpu.iq.FU_type_0::SimdCvt                    0      0.00%     81.91% # Type of FU issued
system.cpu.iq.FU_type_0::SimdMisc                   0      0.00%     81.91% # Type of FU issued
system.cpu.iq.FU_type_0::SimdMult                   0      0.00%     81.91% # Type of FU issued
system.cpu.iq.FU_type_0::SimdMultAcc                0      0.00%     81.91% # Type of FU issued
system.cpu.iq.FU_type_0::SimdShift                  0      0.00%     81.91% # Type of FU issued
system.cpu.iq.FU_type_0::SimdShiftAcc               0      0.00%     81.91% # Type of FU issued
system.cpu.iq.FU_type_0::SimdDiv                    0      0.00%     81.91% # Type of FU issued
system.cpu.iq.FU_type_0::SimdSqrt                   0      0.00%     81.91% # Type of FU issued
system.cpu.iq.FU_type_0::SimdFloatAdd               0      0.00%     81.91% # Type of FU issued
system.cpu.iq.FU_type_0::SimdFloatAlu               0      0.00%     81.91% # Type of FU issued
system.cpu.iq.FU_type_0::SimdFloatCmp               0      0.00%     81.91% # Type of FU issued
system.cpu.iq.FU_type_0::SimdFloatCvt               0      0.00%     81.91% # Type of FU issued
system.cpu.iq.FU_type_0::SimdFloatDiv               0      0.00%     81.91% # Type of FU issued
system.cpu.iq.FU_type_0::SimdFloatMisc              4      0.00%     81.91% # Type of FU issued
system.cpu.iq.FU_type_0::SimdFloatMult              0      0.00%     81.91% # Type of FU issued
system.cpu.iq.FU_type_0::SimdFloatMultAcc            0      0.00%     81.91% # Type of FU issued
system.cpu.iq.FU_type_0::SimdFloatSqrt              0      0.00%     81.91% # Type of FU issued
system.cpu.iq.FU_type_0::SimdReduceAdd              0      0.00%     81.91% # Type of FU issued
system.cpu.iq.FU_type_0::SimdReduceAlu              0      0.00%     81.91% # Type of FU issued
system.cpu.iq.FU_type_0::SimdReduceCmp              0      0.00%     81.91% # Type of FU issued
system.cpu.iq.FU_type_0::SimdFloatReduceAdd            0      0.00%     81.91% # Type of FU issued
system.cpu.iq.FU_type_0::SimdFloatReduceCmp            0      0.00%     81.91% # Type of FU issued
system.cpu.iq.FU_type_0::SimdAes                    0      0.00%     81.91% # Type of FU issued
system.cpu.iq.FU_type_0::SimdAesMix                 0      0.00%     81.91% # Type of FU issued
system.cpu.iq.FU_type_0::SimdSha1Hash               0      0.00%     81.91% # Type of FU issued
system.cpu.iq.FU_type_0::SimdSha1Hash2              0      0.00%     81.91% # Type of FU issued
system.cpu.iq.FU_type_0::SimdSha256Hash             0      0.00%     81.91% # Type of FU issued
system.cpu.iq.FU_type_0::SimdSha256Hash2            0      0.00%     81.91% # Type of FU issued
system.cpu.iq.FU_type_0::SimdShaSigma2              0      0.00%     81.91% # Type of FU issued
system.cpu.iq.FU_type_0::SimdShaSigma3              0      0.00%     81.91% # Type of FU issued
system.cpu.iq.FU_type_0::SimdPredAlu                0      0.00%     81.91% # Type of FU issued
system.cpu.iq.FU_type_0::MemRead              8936062     11.38%     93.29% # Type of FU issued
system.cpu.iq.FU_type_0::MemWrite             5268834      6.71%    100.00% # Type of FU issued
system.cpu.iq.FU_type_0::FloatMemRead               0      0.00%    100.00% # Type of FU issued
system.cpu.iq.FU_type_0::FloatMemWrite              0      0.00%    100.00% # Type of FU issued
system.cpu.iq.FU_type_0::IprAccess                  0      0.00%    100.00% # Type of FU issued
system.cpu.iq.FU_type_0::InstPrefetch               0      0.00%    100.00% # Type of FU issued
system.cpu.iq.FU_type_0::total               78509051                       # Type of FU issued
system.cpu.iq.fp_alu_accesses                       0                       # Number of floating point alu accesses
system.cpu.iq.fp_inst_queue_reads                   0                       # Number of floating instruction queue reads
system.cpu.iq.fp_inst_queue_wakeup_accesses            0                       # Number of floating instruction queue wakeup accesses
system.cpu.iq.fp_inst_queue_writes                  0                       # Number of floating instruction queue writes
system.cpu.iq.fu_busy_cnt                    22261708                       # FU busy when requested
system.cpu.iq.fu_busy_rate                   0.283556                       # FU busy rate (busy events/executed inst)
system.cpu.iq.fu_full::No_OpClass                   0      0.00%      0.00% # attempts to use FU when none available
system.cpu.iq.fu_full::IntAlu                18619825     83.64%     83.64% # attempts to use FU when none available
system.cpu.iq.fu_full::IntMult                     88      0.00%     83.64% # attempts to use FU when none available
system.cpu.iq.fu_full::IntDiv                       0      0.00%     83.64% # attempts to use FU when none available
system.cpu.iq.fu_full::FloatAdd                     0      0.00%     83.64% # attempts to use FU when none available
system.cpu.iq.fu_full::FloatCmp                     0      0.00%     83.64% # attempts to use FU when none available
system.cpu.iq.fu_full::FloatCvt                     0      0.00%     83.64% # attempts to use FU when none available
system.cpu.iq.fu_full::FloatMult                    0      0.00%     83.64% # attempts to use FU when none available
system.cpu.iq.fu_full::FloatMultAcc                 0      0.00%     83.64% # attempts to use FU when none available
system.cpu.iq.fu_full::FloatDiv                     0      0.00%     83.64% # attempts to use FU when none available
system.cpu.iq.fu_full::FloatMisc                    0      0.00%     83.64% # attempts to use FU when none available
system.cpu.iq.fu_full::FloatSqrt                    0      0.00%     83.64% # attempts to use FU when none available
system.cpu.iq.fu_full::SimdAdd                      0      0.00%     83.64% # attempts to use FU when none available
system.cpu.iq.fu_full::SimdAddAcc                   0      0.00%     83.64% # attempts to use FU when none available
system.cpu.iq.fu_full::SimdAlu                      0      0.00%     83.64% # attempts to use FU when none available
system.cpu.iq.fu_full::SimdCmp                      0      0.00%     83.64% # attempts to use FU when none available
system.cpu.iq.fu_full::SimdCvt                      0      0.00%     83.64% # attempts to use FU when none available
system.cpu.iq.fu_full::SimdMisc                     0      0.00%     83.64% # attempts to use FU when none available
system.cpu.iq.fu_full::SimdMult                     0      0.00%     83.64% # attempts to use FU when none available
system.cpu.iq.fu_full::SimdMultAcc                  0      0.00%     83.64% # attempts to use FU when none available
system.cpu.iq.fu_full::SimdShift                    0      0.00%     83.64% # attempts to use FU when none available
system.cpu.iq.fu_full::SimdShiftAcc                 0      0.00%     83.64% # attempts to use FU when none available
system.cpu.iq.fu_full::SimdDiv                      0      0.00%     83.64% # attempts to use FU when none available
system.cpu.iq.fu_full::SimdSqrt                     0      0.00%     83.64% # attempts to use FU when none available
system.cpu.iq.fu_full::SimdFloatAdd                 0      0.00%     83.64% # attempts to use FU when none available
system.cpu.iq.fu_full::SimdFloatAlu                 0      0.00%     83.64% # attempts to use FU when none available
system.cpu.iq.fu_full::SimdFloatCmp                 0      0.00%     83.64% # attempts to use FU when none available
system.cpu.iq.fu_full::SimdFloatCvt                 0      0.00%     83.64% # attempts to use FU when none available
system.cpu.iq.fu_full::SimdFloatDiv                 0      0.00%     83.64% # attempts to use FU when none available
system.cpu.iq.fu_full::SimdFloatMisc                0      0.00%     83.64% # attempts to use FU when none available
system.cpu.iq.fu_full::SimdFloatMult                0      0.00%     83.64% # attempts to use FU when none available
system.cpu.iq.fu_full::SimdFloatMultAcc             0      0.00%     83.64% # attempts to use FU when none available
system.cpu.iq.fu_full::SimdFloatSqrt                0      0.00%     83.64% # attempts to use FU when none available
system.cpu.iq.fu_full::SimdReduceAdd                0      0.00%     83.64% # attempts to use FU when none available
system.cpu.iq.fu_full::SimdReduceAlu                0      0.00%     83.64% # attempts to use FU when none available
system.cpu.iq.fu_full::SimdReduceCmp                0      0.00%     83.64% # attempts to use FU when none available
system.cpu.iq.fu_full::SimdFloatReduceAdd            0      0.00%     83.64% # attempts to use FU when none available
system.cpu.iq.fu_full::SimdFloatReduceCmp            0      0.00%     83.64% # attempts to use FU when none available
system.cpu.iq.fu_full::SimdAes                      0      0.00%     83.64% # attempts to use FU when none available
system.cpu.iq.fu_full::SimdAesMix                   0      0.00%     83.64% # attempts to use FU when none available
system.cpu.iq.fu_full::SimdSha1Hash                 0      0.00%     83.64% # attempts to use FU when none available
system.cpu.iq.fu_full::SimdSha1Hash2                0      0.00%     83.64% # attempts to use FU when none available
system.cpu.iq.fu_full::SimdSha256Hash               0      0.00%     83.64% # attempts to use FU when none available
system.cpu.iq.fu_full::SimdSha256Hash2              0      0.00%     83.64% # attempts to use FU when none available
system.cpu.iq.fu_full::SimdShaSigma2                0      0.00%     83.64% # attempts to use FU when none available
system.cpu.iq.fu_full::SimdShaSigma3                0      0.00%     83.64% # attempts to use FU when none available
system.cpu.iq.fu_full::SimdPredAlu                  0      0.00%     83.64% # attempts to use FU when none available
system.cpu.iq.fu_full::MemRead                2693935     12.10%     95.74% # attempts to use FU when none available
system.cpu.iq.fu_full::MemWrite                947860      4.26%    100.00% # attempts to use FU when none available
system.cpu.iq.fu_full::FloatMemRead                 0      0.00%    100.00% # attempts to use FU when none available
system.cpu.iq.fu_full::FloatMemWrite                0      0.00%    100.00% # attempts to use FU when none available
system.cpu.iq.fu_full::IprAccess                    0      0.00%    100.00% # attempts to use FU when none available
system.cpu.iq.fu_full::InstPrefetch                 0      0.00%    100.00% # attempts to use FU when none available
system.cpu.iq.int_alu_accesses              100770752                       # Number of integer alu accesses
system.cpu.iq.int_inst_queue_reads          219390713                       # Number of integer instruction queue reads
system.cpu.iq.int_inst_queue_wakeup_accesses     78281611                       # Number of integer instruction queue wakeup accesses
system.cpu.iq.int_inst_queue_writes          82730273                       # Number of integer instruction queue writes
system.cpu.iq.iqInstsAdded                   80013503                       # Number of instructions added to the IQ (excludes non-spec)
system.cpu.iq.iqInstsIssued                  78509051                       # Number of instructions issued
system.cpu.iq.iqNonSpecInstsAdded                 121                       # Number of non-speculative instructions added to the IQ
system.cpu.iq.iqSquashedInstsExamined         2715999                       # Number of squashed instructions iterated over during squash; mainly for profiling
system.cpu.iq.iqSquashedInstsIssued            133508                       # Number of squashed instructions issued
system.cpu.iq.iqSquashedNonSpecRemoved              4                       # Number of squashed non-spec instructions that were removed
system.cpu.iq.iqSquashedOperandsExamined      7607104                       # Number of squashed operands that are examined and possibly removed from graph
system.cpu.iq.issued_per_cycle::samples      39977395                       # Number of insts issued each cycle
system.cpu.iq.issued_per_cycle::mean         1.963836                       # Number of insts issued each cycle
system.cpu.iq.issued_per_cycle::stdev        0.794633                       # Number of insts issued each cycle
system.cpu.iq.issued_per_cycle::underflows            0      0.00%      0.00% # Number of insts issued each cycle
system.cpu.iq.issued_per_cycle::0             2044437      5.11%      5.11% # Number of insts issued each cycle
system.cpu.iq.issued_per_cycle::1             6856461     17.15%     22.26% # Number of insts issued each cycle
system.cpu.iq.issued_per_cycle::2            21957824     54.93%     77.19% # Number of insts issued each cycle
system.cpu.iq.issued_per_cycle::3             8737750     21.86%     99.05% # Number of insts issued each cycle
system.cpu.iq.issued_per_cycle::4              380923      0.95%    100.00% # Number of insts issued each cycle
system.cpu.iq.issued_per_cycle::5                   0      0.00%    100.00% # Number of insts issued each cycle
system.cpu.iq.issued_per_cycle::6                   0      0.00%    100.00% # Number of insts issued each cycle
system.cpu.iq.issued_per_cycle::7                   0      0.00%    100.00% # Number of insts issued each cycle
system.cpu.iq.issued_per_cycle::8                   0      0.00%    100.00% # Number of insts issued each cycle
system.cpu.iq.issued_per_cycle::overflows            0      0.00%    100.00% # Number of insts issued each cycle
system.cpu.iq.issued_per_cycle::min_value            0                       # Number of insts issued each cycle
system.cpu.iq.issued_per_cycle::max_value            4                       # Number of insts issued each cycle
system.cpu.iq.issued_per_cycle::total        39977395                       # Number of insts issued each cycle
system.cpu.iq.rate                           1.961845                       # Inst issue rate
system.cpu.iq.vec_alu_accesses                      0                       # Number of vector alu accesses
system.cpu.iq.vec_inst_queue_reads                  0                       # Number of vector instruction queue reads
system.cpu.iq.vec_inst_queue_wakeup_accesses            0                       # Number of vector instruction queue wakeup accesses
system.cpu.iq.vec_inst_queue_writes                 0                       # Number of vector instruction queue writes
system.cpu.itb.accesses                             0                       # DTB accesses
system.cpu.itb.align_faults                         0                       # Number of TLB faults due to alignment restrictions
system.cpu.itb.domain_faults                        0                       # Number of TLB faults due to domain restrictions
system.cpu.itb.flush_entries                        0                       # Number of entries that have been flushed from TLB
system.cpu.itb.flush_tlb                            0                       # Number of times complete TLB was flushed
system.cpu.itb.flush_tlb_asid                       0                       # Number of times TLB was flushed by ASID
system.cpu.itb.flush_tlb_mva                        0                       # Number of times TLB was flushed by MVA
system.cpu.itb.flush_tlb_mva_asid                   0                       # Number of times TLB was flushed by MVA & ASID
system.cpu.itb.hits                                 0                       # DTB hits
system.cpu.itb.inst_accesses                        0                       # ITB inst accesses
system.cpu.itb.inst_hits                            0                       # ITB inst hits
system.cpu.itb.inst_misses                          0                       # ITB inst misses
system.cpu.itb.misses                               0                       # DTB misses
system.cpu.itb.perms_faults                         0                       # Number of TLB faults due to permissions restrictions
system.cpu.itb.prefetch_faults                      0                       # Number of TLB faults due to prefetch
system.cpu.itb.read_accesses                        0                       # DTB read accesses
system.cpu.itb.read_hits                            0                       # DTB read hits
system.cpu.itb.read_misses                          0                       # DTB read misses
system.cpu.itb.stage2_mmu.stage2_tlb.accesses            0                       # DTB accesses
system.cpu.itb.stage2_mmu.stage2_tlb.align_faults            0                       # Number of TLB faults due to alignment restrictions
system.cpu.itb.stage2_mmu.stage2_tlb.domain_faults            0                       # Number of TLB faults due to domain restrictions
system.cpu.itb.stage2_mmu.stage2_tlb.flush_entries            0                       # Number of entries that have been flushed from TLB
system.cpu.itb.stage2_mmu.stage2_tlb.flush_tlb            0                       # Number of times complete TLB was flushed
system.cpu.itb.stage2_mmu.stage2_tlb.flush_tlb_asid            0                       # Number of times TLB was flushed by ASID
system.cpu.itb.stage2_mmu.stage2_tlb.flush_tlb_mva            0                       # Number of times TLB was flushed by MVA
system.cpu.itb.stage2_mmu.stage2_tlb.flush_tlb_mva_asid            0                       # Number of times TLB was flushed by MVA & ASID
system.cpu.itb.stage2_mmu.stage2_tlb.hits            0                       # DTB hits
system.cpu.itb.stage2_mmu.stage2_tlb.inst_accesses            0                       # ITB inst accesses
system.cpu.itb.stage2_mmu.stage2_tlb.inst_hits            0                       # ITB inst hits
system.cpu.itb.stage2_mmu.stage2_tlb.inst_misses            0                       # ITB inst misses
system.cpu.itb.stage2_mmu.stage2_tlb.misses            0                       # DTB misses
system.cpu.itb.stage2_mmu.stage2_tlb.perms_faults            0                       # Number of TLB faults due to permissions restrictions
system.cpu.itb.stage2_mmu.stage2_tlb.prefetch_faults            0                       # Number of TLB faults due to prefetch
system.cpu.itb.stage2_mmu.stage2_tlb.read_accesses            0                       # DTB read accesses
system.cpu.itb.stage2_mmu.stage2_tlb.read_hits            0                       # DTB read hits
system.cpu.itb.stage2_mmu.stage2_tlb.read_misses            0                       # DTB read misses
system.cpu.itb.stage2_mmu.stage2_tlb.walker.walkRequestOrigin_Requested::Data            0                       # Table walker requests started/completed, data/inst
system.cpu.itb.stage2_mmu.stage2_tlb.walker.walkRequestOrigin_Requested::Inst            0                       # Table walker requests started/completed, data/inst
system.cpu.itb.stage2_mmu.stage2_tlb.walker.walkRequestOrigin_Requested::total            0                       # Table walker requests started/completed, data/inst
system.cpu.itb.stage2_mmu.stage2_tlb.walker.walkRequestOrigin_Completed::Data            0                       # Table walker requests started/completed, data/inst
system.cpu.itb.stage2_mmu.stage2_tlb.walker.walkRequestOrigin_Completed::Inst            0                       # Table walker requests started/completed, data/inst
system.cpu.itb.stage2_mmu.stage2_tlb.walker.walkRequestOrigin_Completed::total            0                       # Table walker requests started/completed, data/inst
system.cpu.itb.stage2_mmu.stage2_tlb.walker.walkRequestOrigin::total            0                       # Table walker requests started/completed, data/inst
system.cpu.itb.stage2_mmu.stage2_tlb.walker.walks            0                       # Table walker walks requested
system.cpu.itb.stage2_mmu.stage2_tlb.write_accesses            0                       # DTB write accesses
system.cpu.itb.stage2_mmu.stage2_tlb.write_hits            0                       # DTB write hits
system.cpu.itb.stage2_mmu.stage2_tlb.write_misses            0                       # DTB write misses
system.cpu.itb.walker.walkRequestOrigin_Requested::Data            0                       # Table walker requests started/completed, data/inst
system.cpu.itb.walker.walkRequestOrigin_Requested::Inst            0                       # Table walker requests started/completed, data/inst
system.cpu.itb.walker.walkRequestOrigin_Requested::total            0                       # Table walker requests started/completed, data/inst
system.cpu.itb.walker.walkRequestOrigin_Completed::Data            0                       # Table walker requests started/completed, data/inst
system.cpu.itb.walker.walkRequestOrigin_Completed::Inst            0                       # Table walker requests started/completed, data/inst
system.cpu.itb.walker.walkRequestOrigin_Completed::total            0                       # Table walker requests started/completed, data/inst
system.cpu.itb.walker.walkRequestOrigin::total            0                       # Table walker requests started/completed, data/inst
system.cpu.itb.walker.walks                         0                       # Table walker walks requested
system.cpu.itb.write_accesses                       0                       # DTB write accesses
system.cpu.itb.write_hits                           0                       # DTB write hits
system.cpu.itb.write_misses                         0                       # DTB write misses
system.cpu.memDep0.conflictingLoads            907815                       # Number of conflicting loads.
system.cpu.memDep0.conflictingStores             1513                       # Number of conflicting stores.
system.cpu.memDep0.insertedLoads              9028544                       # Number of loads inserted to the mem dependence unit.
system.cpu.memDep0.insertedStores             5327677                       # Number of stores inserted to the mem dependence unit.
system.cpu.misc_regfile_reads                14083760                       # number of misc regfile reads
system.cpu.misc_regfile_writes                    206                       # number of misc regfile writes
system.cpu.numCycles                         40017961                       # number of cpu cycles simulated
system.cpu.numWorkItemsCompleted                    0                       # number of work items this cpu completed
system.cpu.numWorkItemsStarted                      0                       # number of work items this cpu started
system.cpu.rename.BlockCycles                  385160                       # Number of cycles rename is blocking
system.cpu.rename.CommittedMaps              94284884                       # Number of HB maps that are committed
system.cpu.rename.IQFullEvents                  92567                       # Number of times rename has blocked due to IQ full
system.cpu.rename.IdleCycles                  3191992                       # Number of cycles rename is idle
system.cpu.rename.LQFullEvents                      4                       # Number of times rename has blocked due to LQ full
system.cpu.rename.ROBFullEvents                740885                       # Number of times rename has blocked due to ROB full
system.cpu.rename.RenameLookups             363824242                       # Number of register rename lookups that rename has made
system.cpu.rename.RenamedInsts               80301833                       # Number of instructions processed by rename
system.cpu.rename.RenamedOperands            98219741                       # Number of destination operands rename has renamed
system.cpu.rename.RunCycles                  34551589                       # Number of cycles rename is running
system.cpu.rename.SQFullEvents                   2039                       # Number of times rename has blocked due to SQ full
system.cpu.rename.SquashCycles                 141309                       # Number of cycles rename is squashing
system.cpu.rename.SquashedInsts                302109                       # Number of squashed instructions processed by rename
system.cpu.rename.UnblockCycles               1705138                       # Number of cycles rename is unblocking
system.cpu.rename.UndoneMaps                  3934856                       # Number of HB maps that are undone due to squashing
system.cpu.rename.int_rename_lookups        103997664                       # Number of integer rename lookups
system.cpu.rename.serializeStallCycles           2207                       # count of cycles rename stalled for serializing inst
system.cpu.rename.serializingInsts                 73                       # count of serializing insts renamed
system.cpu.rename.skidInsts                   2978071                       # count of insts added to the skid buffer
system.cpu.rename.tempSerializingInsts             69                       # count of temporary serializing insts renamed
system.cpu.rename.vec_rename_lookups               32                       # Number of vector rename lookups
system.cpu.rob.rob_reads                    117653215                       # The number of ROB reads
system.cpu.rob.rob_writes                   159871640                       # The number of ROB writes
system.cpu.timesIdled                             623                       # Number of times that the entire CPU went into an idle state and unscheduled itself
system.cpu.vec_regfile_reads                       32                       # number of vector regfile reads
system.cpu.workload.numSyscalls                    13                       # Number of system calls
system.membus.snoop_filter.hit_multi_requests           33                       # Number of requests hitting in the snoop filter with multiple (>1) holders of the requested data.
system.membus.snoop_filter.hit_multi_snoops            0                       # Number of snoops hitting in the snoop filter with multiple (>1) holders of the requested data.
system.membus.snoop_filter.hit_single_requests          347                       # Number of requests hitting in the snoop filter with a single holder of the requested data.
system.membus.snoop_filter.hit_single_snoops            0                       # Number of snoops hitting in the snoop filter with a single holder of the requested data.
system.membus.snoop_filter.tot_requests          1477                       # Total number of requests made to the snoop filter.
system.membus.snoop_filter.tot_snoops               0                       # Total number of snoops made to the snoop filter.
system.membus.pwrStateResidencyTicks::UNDEFINED  25011225000                       # Cumulative time (in ticks) in various power states
system.membus.trans_dist::ReadResp               1018                       # Transaction distribution
system.membus.trans_dist::WritebackDirty            2                       # Transaction distribution
system.membus.trans_dist::WritebackClean          326                       # Transaction distribution
system.membus.trans_dist::ReadExReq               131                       # Transaction distribution
system.membus.trans_dist::ReadExResp              131                       # Transaction distribution
system.membus.trans_dist::ReadCleanReq            825                       # Transaction distribution
system.membus.trans_dist::ReadSharedReq           193                       # Transaction distribution
system.membus.pkt_count_system.cpu.icache.mem_side::system.mem_ctrls.port         1971                       # Packet count per connected master and slave (bytes)
system.membus.pkt_count_system.cpu.dcache.mem_side::system.mem_ctrls.port          655                       # Packet count per connected master and slave (bytes)
system.membus.pkt_count::total                   2626                       # Packet count per connected master and slave (bytes)
system.membus.pkt_size_system.cpu.icache.mem_side::system.mem_ctrls.port        73344                       # Cumulative packet size per connected master and slave (bytes)
system.membus.pkt_size_system.cpu.dcache.mem_side::system.mem_ctrls.port        21184                       # Cumulative packet size per connected master and slave (bytes)
system.membus.pkt_size::total                   94528                       # Cumulative packet size per connected master and slave (bytes)
system.membus.snoops                                0                       # Total snoops (count)
system.membus.snoopTraffic                          0                       # Total snoop traffic (bytes)
system.membus.snoop_fanout::samples              1149                       # Request fanout histogram
system.membus.snoop_fanout::mean             0.045257                       # Request fanout histogram
system.membus.snoop_fanout::stdev            0.207957                       # Request fanout histogram
system.membus.snoop_fanout::underflows              0      0.00%      0.00% # Request fanout histogram
system.membus.snoop_fanout::0                    1097     95.47%     95.47% # Request fanout histogram
system.membus.snoop_fanout::1                      52      4.53%    100.00% # Request fanout histogram
system.membus.snoop_fanout::2                       0      0.00%    100.00% # Request fanout histogram
system.membus.snoop_fanout::3                       0      0.00%    100.00% # Request fanout histogram
system.membus.snoop_fanout::4                       0      0.00%    100.00% # Request fanout histogram
system.membus.snoop_fanout::overflows               0      0.00%    100.00% # Request fanout histogram
system.membus.snoop_fanout::min_value               0                       # Request fanout histogram
system.membus.snoop_fanout::max_value               1                       # Request fanout histogram
system.membus.snoop_fanout::total                1149                       # Request fanout histogram
system.membus.reqLayer0.occupancy             3331625                       # Layer occupancy (ticks)
system.membus.reqLayer0.utilization               0.0                       # Layer utilization (%)
system.membus.respLayer1.occupancy            4375875                       # Layer occupancy (ticks)
system.membus.respLayer1.utilization              0.0                       # Layer utilization (%)
system.membus.respLayer2.occupancy            1767500                       # Layer occupancy (ticks)
system.membus.respLayer2.utilization              0.0                       # Layer utilization (%)
system.voltage_domain.voltage                       1                       # Voltage in Volts
system.clk_domain.clock                          1000                       # Clock period in ticks
system.cpu_voltage_domain.voltage                   1                       # Voltage in Volts
system.mem_ctrls.pwrStateResidencyTicks::UNDEFINED  25011225000                       # Cumulative time (in ticks) in various power states
system.mem_ctrls.bytes_read::.cpu.inst          52800                       # Number of bytes read from this memory
system.mem_ctrls.bytes_read::.cpu.data          20736                       # Number of bytes read from this memory
system.mem_ctrls.bytes_read::total              73536                       # Number of bytes read from this memory
system.mem_ctrls.bytes_inst_read::.cpu.inst        52800                       # Number of instructions bytes read from this memory
system.mem_ctrls.bytes_inst_read::total         52800                       # Number of instructions bytes read from this memory
system.mem_ctrls.bytes_written::.writebacks          128                       # Number of bytes written to this memory
system.mem_ctrls.bytes_written::total             128                       # Number of bytes written to this memory
system.mem_ctrls.num_reads::.cpu.inst             825                       # Number of read requests responded to by this memory
system.mem_ctrls.num_reads::.cpu.data             324                       # Number of read requests responded to by this memory
system.mem_ctrls.num_reads::total                1149                       # Number of read requests responded to by this memory
system.mem_ctrls.num_writes::.writebacks            2                       # Number of write requests responded to by this memory
system.mem_ctrls.num_writes::total                  2                       # Number of write requests responded to by this memory
system.mem_ctrls.bw_read::.cpu.inst           2111052                       # Total read bandwidth from this memory (bytes/s)
system.mem_ctrls.bw_read::.cpu.data            829068                       # Total read bandwidth from this memory (bytes/s)
system.mem_ctrls.bw_read::total               2940120                       # Total read bandwidth from this memory (bytes/s)
system.mem_ctrls.bw_inst_read::.cpu.inst      2111052                       # Instruction read bandwidth from this memory (bytes/s)
system.mem_ctrls.bw_inst_read::total          2111052                       # Instruction read bandwidth from this memory (bytes/s)
system.mem_ctrls.bw_write::.writebacks           5118                       # Write bandwidth from this memory (bytes/s)
system.mem_ctrls.bw_write::total                 5118                       # Write bandwidth from this memory (bytes/s)
system.mem_ctrls.bw_total::.writebacks           5118                       # Total bandwidth to/from this memory (bytes/s)
system.mem_ctrls.bw_total::.cpu.inst          2111052                       # Total bandwidth to/from this memory (bytes/s)
system.mem_ctrls.bw_total::.cpu.data           829068                       # Total bandwidth to/from this memory (bytes/s)
system.mem_ctrls.bw_total::total              2945238                       # Total bandwidth to/from this memory (bytes/s)
system.mem_ctrls.avgPriority_.writebacks::samples       291.00                       # Average QoS priority value for accepted requests
system.mem_ctrls.avgPriority_.cpu.inst::samples       811.00                       # Average QoS priority value for accepted requests
system.mem_ctrls.avgPriority_.cpu.data::samples       324.00                       # Average QoS priority value for accepted requests
system.mem_ctrls.priorityMinLatency      0.000000018750                       # per QoS priority minimum request to response latency (s)
system.mem_ctrls.priorityMaxLatency      0.049913235000                       # per QoS priority maximum request to response latency (s)
system.mem_ctrls.numReadWriteTurnArounds           16                       # Number of turnarounds from READ to WRITE
system.mem_ctrls.numWriteReadTurnArounds           16                       # Number of turnarounds from WRITE to READ
system.mem_ctrls.numStayReadState                8938                       # Number of times bus staying in READ state
system.mem_ctrls.numStayWriteState                244                       # Number of times bus staying in WRITE state
system.mem_ctrls.readReqs                        1149                       # Number of read requests accepted
system.mem_ctrls.writeReqs                        295                       # Number of write requests accepted
system.mem_ctrls.readBursts                      1149                       # Number of DRAM read bursts, including those serviced by the write queue
system.mem_ctrls.writeBursts                      295                       # Number of DRAM write bursts, including those merged in the write queue
system.mem_ctrls.servicedByWrQ                     14                       # Number of DRAM read bursts serviced by the write queue
system.mem_ctrls.mergedWrBursts                     4                       # Number of DRAM write bursts merged with an existing one
system.mem_ctrls.neitherReadNorWriteReqs            0                       # Number of requests that are neither read nor write
system.mem_ctrls.perBankRdBursts::0                97                       # Per bank write bursts
system.mem_ctrls.perBankRdBursts::1                68                       # Per bank write bursts
system.mem_ctrls.perBankRdBursts::2                85                       # Per bank write bursts
system.mem_ctrls.perBankRdBursts::3               146                       # Per bank write bursts
system.mem_ctrls.perBankRdBursts::4               117                       # Per bank write bursts
system.mem_ctrls.perBankRdBursts::5                68                       # Per bank write bursts
system.mem_ctrls.perBankRdBursts::6                82                       # Per bank write bursts
system.mem_ctrls.perBankRdBursts::7                79                       # Per bank write bursts
system.mem_ctrls.perBankRdBursts::8               173                       # Per bank write bursts
system.mem_ctrls.perBankRdBursts::9                42                       # Per bank write bursts
system.mem_ctrls.perBankRdBursts::10               42                       # Per bank write bursts
system.mem_ctrls.perBankRdBursts::11               38                       # Per bank write bursts
system.mem_ctrls.perBankRdBursts::12               71                       # Per bank write bursts
system.mem_ctrls.perBankRdBursts::13                0                       # Per bank write bursts
system.mem_ctrls.perBankRdBursts::14                9                       # Per bank write bursts
system.mem_ctrls.perBankRdBursts::15               18                       # Per bank write bursts
system.mem_ctrls.perBankWrBursts::0                20                       # Per bank write bursts
system.mem_ctrls.perBankWrBursts::1                11                       # Per bank write bursts
system.mem_ctrls.perBankWrBursts::2                29                       # Per bank write bursts
system.mem_ctrls.perBankWrBursts::3                22                       # Per bank write bursts
system.mem_ctrls.perBankWrBursts::4                32                       # Per bank write bursts
system.mem_ctrls.perBankWrBursts::5                 6                       # Per bank write bursts
system.mem_ctrls.perBankWrBursts::6                 3                       # Per bank write bursts
system.mem_ctrls.perBankWrBursts::7                13                       # Per bank write bursts
system.mem_ctrls.perBankWrBursts::8                48                       # Per bank write bursts
system.mem_ctrls.perBankWrBursts::9                 7                       # Per bank write bursts
system.mem_ctrls.perBankWrBursts::10                5                       # Per bank write bursts
system.mem_ctrls.perBankWrBursts::11               15                       # Per bank write bursts
system.mem_ctrls.perBankWrBursts::12               32                       # Per bank write bursts
system.mem_ctrls.perBankWrBursts::13                0                       # Per bank write bursts
system.mem_ctrls.perBankWrBursts::14                6                       # Per bank write bursts
system.mem_ctrls.perBankWrBursts::15               11                       # Per bank write bursts
system.mem_ctrls.avgRdQLen                       1.00                       # Average read queue length when enqueuing
system.mem_ctrls.avgWrQLen                      19.00                       # Average write queue length when enqueuing
system.mem_ctrls.totQLat                     12598375                       # Total ticks spent queuing
system.mem_ctrls.totBusLat                    5675000                       # Total ticks spent in databus transfers
system.mem_ctrls.totMemAccLat                33879625                       # Total ticks spent from burst creation until serviced by the DRAM
system.mem_ctrls.avgQLat                     11099.89                       # Average queueing delay per DRAM burst
system.mem_ctrls.avgBusLat                    5000.00                       # Average bus latency per DRAM burst
system.mem_ctrls.avgMemAccLat                29849.89                       # Average memory access latency per DRAM burst
system.mem_ctrls.numRdRetry                         0                       # Number of times read queue was full causing retry
system.mem_ctrls.numWrRetry                         0                       # Number of times write queue was full causing retry
system.mem_ctrls.readRowHits                      846                       # Number of row buffer hits during reads
system.mem_ctrls.writeRowHits                     200                       # Number of row buffer hits during writes
system.mem_ctrls.readRowHitRate                 74.54                       # Row buffer hit rate for reads
system.mem_ctrls.writeRowHitRate                68.73                       # Row buffer hit rate for writes
system.mem_ctrls.readPktSize::0                     0                       # Read request sizes (log2)
system.mem_ctrls.readPktSize::1                     0                       # Read request sizes (log2)
system.mem_ctrls.readPktSize::2                     0                       # Read request sizes (log2)
system.mem_ctrls.readPktSize::3                     0                       # Read request sizes (log2)
system.mem_ctrls.readPktSize::4                     0                       # Read request sizes (log2)
system.mem_ctrls.readPktSize::5                     0                       # Read request sizes (log2)
system.mem_ctrls.readPktSize::6                  1149                       # Read request sizes (log2)
system.mem_ctrls.writePktSize::0                    0                       # Write request sizes (log2)
system.mem_ctrls.writePktSize::1                    0                       # Write request sizes (log2)
system.mem_ctrls.writePktSize::2                    0                       # Write request sizes (log2)
system.mem_ctrls.writePktSize::3                    0                       # Write request sizes (log2)
system.mem_ctrls.writePktSize::4                    0                       # Write request sizes (log2)
system.mem_ctrls.writePktSize::5                    0                       # Write request sizes (log2)
system.mem_ctrls.writePktSize::6                  295                       # Write request sizes (log2)
system.mem_ctrls.rdQLenPdf::0                     772                       # What read queue length does an incoming req see
system.mem_ctrls.rdQLenPdf::1                     293                       # What read queue length does an incoming req see
system.mem_ctrls.rdQLenPdf::2                      57                       # What read queue length does an incoming req see
system.mem_ctrls.rdQLenPdf::3                       9                       # What read queue length does an incoming req see
system.mem_ctrls.rdQLenPdf::4                       3                       # What read queue length does an incoming req see
system.mem_ctrls.rdQLenPdf::5                       1                       # What read queue length does an incoming req see
system.mem_ctrls.rdQLenPdf::6                       0                       # What read queue length does an incoming req see
system.mem_ctrls.rdQLenPdf::7                       0                       # What read queue length does an incoming req see
system.mem_ctrls.rdQLenPdf::8                       0                       # What read queue length does an incoming req see
system.mem_ctrls.rdQLenPdf::9                       0                       # What read queue length does an incoming req see
system.mem_ctrls.rdQLenPdf::10                      0                       # What read queue length does an incoming req see
system.mem_ctrls.rdQLenPdf::11                      0                       # What read queue length does an incoming req see
system.mem_ctrls.rdQLenPdf::12                      0                       # What read queue length does an incoming req see
system.mem_ctrls.rdQLenPdf::13                      0                       # What read queue length does an incoming req see
system.mem_ctrls.rdQLenPdf::14                      0                       # What read queue length does an incoming req see
system.mem_ctrls.rdQLenPdf::15                      0                       # What read queue length does an incoming req see
system.mem_ctrls.rdQLenPdf::16                      0                       # What read queue length does an incoming req see
system.mem_ctrls.rdQLenPdf::17                      0                       # What read queue length does an incoming req see
system.mem_ctrls.rdQLenPdf::18                      0                       # What read queue length does an incoming req see
system.mem_ctrls.rdQLenPdf::19                      0                       # What read queue length does an incoming req see
system.mem_ctrls.rdQLenPdf::20                      0                       # What read queue length does an incoming req see
system.mem_ctrls.rdQLenPdf::21                      0                       # What read queue length does an incoming req see
system.mem_ctrls.rdQLenPdf::22                      0                       # What read queue length does an incoming req see
system.mem_ctrls.rdQLenPdf::23                      0                       # What read queue length does an incoming req see
system.mem_ctrls.rdQLenPdf::24                      0                       # What read queue length does an incoming req see
system.mem_ctrls.rdQLenPdf::25                      0                       # What read queue length does an incoming req see
system.mem_ctrls.rdQLenPdf::26                      0                       # What read queue length does an incoming req see
system.mem_ctrls.rdQLenPdf::27                      0                       # What read queue length does an incoming req see
system.mem_ctrls.rdQLenPdf::28                      0                       # What read queue length does an incoming req see
system.mem_ctrls.rdQLenPdf::29                      0                       # What read queue length does an incoming req see
system.mem_ctrls.rdQLenPdf::30                      0                       # What read queue length does an incoming req see
system.mem_ctrls.rdQLenPdf::31                      0                       # What read queue length does an incoming req see
system.mem_ctrls.wrQLenPdf::0                       1                       # What write queue length does an incoming req see
system.mem_ctrls.wrQLenPdf::1                       1                       # What write queue length does an incoming req see
system.mem_ctrls.wrQLenPdf::2                       1                       # What write queue length does an incoming req see
system.mem_ctrls.wrQLenPdf::3                       1                       # What write queue length does an incoming req see
system.mem_ctrls.wrQLenPdf::4                       1                       # What write queue length does an incoming req see
system.mem_ctrls.wrQLenPdf::5                       1                       # What write queue length does an incoming req see
system.mem_ctrls.wrQLenPdf::6                       1                       # What write queue length does an incoming req see
system.mem_ctrls.wrQLenPdf::7                       1                       # What write queue length does an incoming req see
system.mem_ctrls.wrQLenPdf::8                       1                       # What write queue length does an incoming req see
system.mem_ctrls.wrQLenPdf::9                       1                       # What write queue length does an incoming req see
system.mem_ctrls.wrQLenPdf::10                      1                       # What write queue length does an incoming req see
system.mem_ctrls.wrQLenPdf::11                      1                       # What write queue length does an incoming req see
system.mem_ctrls.wrQLenPdf::12                      1                       # What write queue length does an incoming req see
system.mem_ctrls.wrQLenPdf::13                      1                       # What write queue length does an incoming req see
system.mem_ctrls.wrQLenPdf::14                      1                       # What write queue length does an incoming req see
[...]
system.cpu.itb_walker_cache.blocked_cycles::no_mshrs            0                       # number of cycles access was blocked
system.cpu.itb_walker_cache.blocked_cycles::no_targets            0                       # number of cycles access was blocked
system.cpu.itb_walker_cache.blocked::no_mshrs            0                       # number of cycles access was blocked
system.cpu.itb_walker_cache.blocked::no_targets            0                       # number of cycles access was blocked
system.cpu.itb_walker_cache.avg_blocked_cycles::no_mshrs          nan                       # average number of cycles each access was blocked
system.cpu.itb_walker_cache.avg_blocked_cycles::no_targets          nan                       # average number of cycles each access was blocked
system.cpu.itb_walker_cache.replacements            0                       # number of replacements
system.cpu.itb_walker_cache.tags.pwrStateResidencyTicks::UNDEFINED  25011225000                       # Cumulative time (in ticks) in various power states
system.cpu.itb_walker_cache.tags.tagsinuse            0                       # Cycle average of tags in use
system.cpu.itb_walker_cache.tags.total_refs            0                       # Total number of references to valid blocks.
system.cpu.itb_walker_cache.tags.sampled_refs            0                       # Sample count of references to valid blocks.
system.cpu.itb_walker_cache.tags.avg_refs          nan                       # Average number of references to valid blocks.
system.cpu.itb_walker_cache.tags.warmup_cycle            0                       # Cycle when the warmup percentage was hit.
system.cpu.itb_walker_cache.tags.tag_accesses            0                       # Number of tag accesses
system.cpu.itb_walker_cache.tags.data_accesses            0                       # Number of data accesses
system.cpu.itb.walker.pwrStateResidencyTicks::UNDEFINED  25011225000                       # Cumulative time (in ticks) in various power states
system.cpu.itb.stage2_mmu.stage2_tlb.walker.pwrStateResidencyTicks::UNDEFINED  25011225000                       # Cumulative time (in ticks) in various power states
system.cpu.dtb_walker_cache.pwrStateResidencyTicks::UNDEFINED  25011225000                       # Cumulative time (in ticks) in various power states
system.cpu.dtb_walker_cache.blocked_cycles::no_mshrs            0                       # number of cycles access was blocked
system.cpu.dtb_walker_cache.blocked_cycles::no_targets            0                       # number of cycles access was blocked
system.cpu.dtb_walker_cache.blocked::no_mshrs            0                       # number of cycles access was blocked
system.cpu.dtb_walker_cache.blocked::no_targets            0                       # number of cycles access was blocked
system.cpu.dtb_walker_cache.avg_blocked_cycles::no_mshrs          nan                       # average number of cycles each access was blocked
system.cpu.dtb_walker_cache.avg_blocked_cycles::no_targets          nan                       # average number of cycles each access was blocked
system.cpu.dtb_walker_cache.replacements            0                       # number of replacements
system.cpu.dtb_walker_cache.tags.pwrStateResidencyTicks::UNDEFINED  25011225000                       # Cumulative time (in ticks) in various power states
system.cpu.dtb_walker_cache.tags.tagsinuse            0                       # Cycle average of tags in use
system.cpu.dtb_walker_cache.tags.total_refs            0                       # Total number of references to valid blocks.
system.cpu.dtb_walker_cache.tags.sampled_refs            0                       # Sample count of references to valid blocks.
system.cpu.dtb_walker_cache.tags.avg_refs          nan                       # Average number of references to valid blocks.
system.cpu.dtb_walker_cache.tags.warmup_cycle            0                       # Cycle when the warmup percentage was hit.
system.cpu.dtb_walker_cache.tags.tag_accesses            0                       # Number of tag accesses
system.cpu.dtb_walker_cache.tags.data_accesses            0                       # Number of data accesses
system.cpu.dcache.pwrStateResidencyTicks::UNDEFINED  25011225000                       # Cumulative time (in ticks) in various power states
system.cpu.dcache.demand_hits::.cpu.data     12827345                       # number of demand (read+write) hits
system.cpu.dcache.demand_hits::total         12827345                       # number of demand (read+write) hits
system.cpu.dcache.overall_hits::.cpu.data     12827345                       # number of overall hits
system.cpu.dcache.overall_hits::total        12827345                       # number of overall hits
system.cpu.dcache.demand_misses::.cpu.data         1102                       # number of demand (read+write) misses
system.cpu.dcache.demand_misses::total           1102                       # number of demand (read+write) misses
system.cpu.dcache.overall_misses::.cpu.data         1102                       # number of overall misses
system.cpu.dcache.overall_misses::total          1102                       # number of overall misses
system.cpu.dcache.demand_miss_latency::.cpu.data     75494500                       # number of demand (read+write) miss cycles
system.cpu.dcache.demand_miss_latency::total     75494500                       # number of demand (read+write) miss cycles
system.cpu.dcache.overall_miss_latency::.cpu.data     75494500                       # number of overall miss cycles
system.cpu.dcache.overall_miss_latency::total     75494500                       # number of overall miss cycles
system.cpu.dcache.demand_accesses::.cpu.data     12828447                       # number of demand (read+write) accesses
system.cpu.dcache.demand_accesses::total     12828447                       # number of demand (read+write) accesses
system.cpu.dcache.overall_accesses::.cpu.data     12828447                       # number of overall (read+write) accesses
system.cpu.dcache.overall_accesses::total     12828447                       # number of overall (read+write) accesses
system.cpu.dcache.demand_miss_rate::.cpu.data     0.000086                       # miss rate for demand accesses
system.cpu.dcache.demand_miss_rate::total     0.000086                       # miss rate for demand accesses
system.cpu.dcache.overall_miss_rate::.cpu.data     0.000086                       # miss rate for overall accesses
system.cpu.dcache.overall_miss_rate::total     0.000086                       # miss rate for overall accesses
system.cpu.dcache.demand_avg_miss_latency::.cpu.data 68506.805808                       # average overall miss latency
system.cpu.dcache.demand_avg_miss_latency::total 68506.805808                       # average overall miss latency
system.cpu.dcache.overall_avg_miss_latency::.cpu.data 68506.805808                       # average overall miss latency
system.cpu.dcache.overall_avg_miss_latency::total 68506.805808                       # average overall miss latency
system.cpu.dcache.blocked_cycles::no_mshrs            0                       # number of cycles access was blocked
system.cpu.dcache.blocked_cycles::no_targets         5048                       # number of cycles access was blocked
system.cpu.dcache.blocked::no_mshrs                 0                       # number of cycles access was blocked
system.cpu.dcache.blocked::no_targets              55                       # number of cycles access was blocked
system.cpu.dcache.avg_blocked_cycles::no_mshrs          nan                       # average number of cycles each access was blocked
system.cpu.dcache.avg_blocked_cycles::no_targets    91.781818                       # average number of cycles each access was blocked
system.cpu.dcache.writebacks::.writebacks            7                       # number of writebacks
system.cpu.dcache.writebacks::total                 7                       # number of writebacks
system.cpu.dcache.demand_mshr_hits::.cpu.data          778                       # number of demand (read+write) MSHR hits
system.cpu.dcache.demand_mshr_hits::total          778                       # number of demand (read+write) MSHR hits
system.cpu.dcache.overall_mshr_hits::.cpu.data          778                       # number of overall MSHR hits
system.cpu.dcache.overall_mshr_hits::total          778                       # number of overall MSHR hits
system.cpu.dcache.demand_mshr_misses::.cpu.data          324                       # number of demand (read+write) MSHR misses
system.cpu.dcache.demand_mshr_misses::total          324                       # number of demand (read+write) MSHR misses
system.cpu.dcache.overall_mshr_misses::.cpu.data          324                       # number of overall MSHR misses
system.cpu.dcache.overall_mshr_misses::total          324                       # number of overall MSHR misses
system.cpu.dcache.demand_mshr_miss_latency::.cpu.data     21809500                       # number of demand (read+write) MSHR miss cycles
system.cpu.dcache.demand_mshr_miss_latency::total     21809500                       # number of demand (read+write) MSHR miss cycles
system.cpu.dcache.overall_mshr_miss_latency::.cpu.data     21809500                       # number of overall MSHR miss cycles
system.cpu.dcache.overall_mshr_miss_latency::total     21809500                       # number of overall MSHR miss cycles
system.cpu.dcache.demand_mshr_miss_rate::.cpu.data     0.000025                       # mshr miss rate for demand accesses
system.cpu.dcache.demand_mshr_miss_rate::total     0.000025                       # mshr miss rate for demand accesses
system.cpu.dcache.overall_mshr_miss_rate::.cpu.data     0.000025                       # mshr miss rate for overall accesses
system.cpu.dcache.overall_mshr_miss_rate::total     0.000025                       # mshr miss rate for overall accesses
system.cpu.dcache.demand_avg_mshr_miss_latency::.cpu.data 67313.271605                       # average overall mshr miss latency
system.cpu.dcache.demand_avg_mshr_miss_latency::total 67313.271605                       # average overall mshr miss latency
system.cpu.dcache.overall_avg_mshr_miss_latency::.cpu.data 67313.271605                       # average overall mshr miss latency
system.cpu.dcache.overall_avg_mshr_miss_latency::total 67313.271605                       # average overall mshr miss latency
system.cpu.dcache.replacements                      7                       # number of replacements
system.cpu.dcache.ReadReq_hits::.cpu.data      7968287                       # number of ReadReq hits
system.cpu.dcache.ReadReq_hits::total         7968287                       # number of ReadReq hits
system.cpu.dcache.ReadReq_misses::.cpu.data          486                       # number of ReadReq misses
system.cpu.dcache.ReadReq_misses::total           486                       # number of ReadReq misses
system.cpu.dcache.ReadReq_miss_latency::.cpu.data     34773875                       # number of ReadReq miss cycles
system.cpu.dcache.ReadReq_miss_latency::total     34773875                       # number of ReadReq miss cycles
system.cpu.dcache.ReadReq_accesses::.cpu.data      7968773                       # number of ReadReq accesses(hits+misses)
system.cpu.dcache.ReadReq_accesses::total      7968773                       # number of ReadReq accesses(hits+misses)
system.cpu.dcache.ReadReq_miss_rate::.cpu.data     0.000061                       # miss rate for ReadReq accesses
system.cpu.dcache.ReadReq_miss_rate::total     0.000061                       # miss rate for ReadReq accesses
system.cpu.dcache.ReadReq_avg_miss_latency::.cpu.data 71551.183128                       # average ReadReq miss latency
system.cpu.dcache.ReadReq_avg_miss_latency::total 71551.183128                       # average ReadReq miss latency
system.cpu.dcache.ReadReq_mshr_hits::.cpu.data          293                       # number of ReadReq MSHR hits
system.cpu.dcache.ReadReq_mshr_hits::total          293                       # number of ReadReq MSHR hits
system.cpu.dcache.ReadReq_mshr_misses::.cpu.data          193                       # number of ReadReq MSHR misses
system.cpu.dcache.ReadReq_mshr_misses::total          193                       # number of ReadReq MSHR misses
system.cpu.dcache.ReadReq_mshr_miss_latency::.cpu.data     12938500                       # number of ReadReq MSHR miss cycles
system.cpu.dcache.ReadReq_mshr_miss_latency::total     12938500                       # number of ReadReq MSHR miss cycles
system.cpu.dcache.ReadReq_mshr_miss_rate::.cpu.data     0.000024                       # mshr miss rate for ReadReq accesses
system.cpu.dcache.ReadReq_mshr_miss_rate::total     0.000024                       # mshr miss rate for ReadReq accesses
system.cpu.dcache.ReadReq_avg_mshr_miss_latency::.cpu.data 67038.860104                       # average ReadReq mshr miss latency
system.cpu.dcache.ReadReq_avg_mshr_miss_latency::total 67038.860104                       # average ReadReq mshr miss latency
system.cpu.dcache.WriteReq_hits::.cpu.data      4859058                       # number of WriteReq hits
system.cpu.dcache.WriteReq_hits::total        4859058                       # number of WriteReq hits
system.cpu.dcache.WriteReq_misses::.cpu.data          616                       # number of WriteReq misses
system.cpu.dcache.WriteReq_misses::total          616                       # number of WriteReq misses
system.cpu.dcache.WriteReq_miss_latency::.cpu.data     40720625                       # number of WriteReq miss cycles
system.cpu.dcache.WriteReq_miss_latency::total     40720625                       # number of WriteReq miss cycles
system.cpu.dcache.WriteReq_accesses::.cpu.data      4859674                       # number of WriteReq accesses(hits+misses)
system.cpu.dcache.WriteReq_accesses::total      4859674                       # number of WriteReq accesses(hits+misses)
system.cpu.dcache.WriteReq_miss_rate::.cpu.data     0.000127                       # miss rate for WriteReq accesses
system.cpu.dcache.WriteReq_miss_rate::total     0.000127                       # miss rate for WriteReq accesses
system.cpu.dcache.WriteReq_avg_miss_latency::.cpu.data 66104.910714                       # average WriteReq miss latency
system.cpu.dcache.WriteReq_avg_miss_latency::total 66104.910714                       # average WriteReq miss latency
system.cpu.dcache.WriteReq_mshr_hits::.cpu.data          485                       # number of WriteReq MSHR hits
system.cpu.dcache.WriteReq_mshr_hits::total          485                       # number of WriteReq MSHR hits
system.cpu.dcache.WriteReq_mshr_misses::.cpu.data          131                       # number of WriteReq MSHR misses
system.cpu.dcache.WriteReq_mshr_misses::total          131                       # number of WriteReq MSHR misses
system.cpu.dcache.WriteReq_mshr_miss_latency::.cpu.data      8871000                       # number of WriteReq MSHR miss cycles
system.cpu.dcache.WriteReq_mshr_miss_latency::total      8871000                       # number of WriteReq MSHR miss cycles
system.cpu.dcache.WriteReq_mshr_miss_rate::.cpu.data     0.000027                       # mshr miss rate for WriteReq accesses
system.cpu.dcache.WriteReq_mshr_miss_rate::total     0.000027                       # mshr miss rate for WriteReq accesses
system.cpu.dcache.WriteReq_avg_mshr_miss_latency::.cpu.data 67717.557252                       # average WriteReq mshr miss latency
system.cpu.dcache.WriteReq_avg_mshr_miss_latency::total 67717.557252                       # average WriteReq mshr miss latency
system.cpu.dcache.LoadLockedReq_hits::.cpu.data           49                       # number of LoadLockedReq hits
system.cpu.dcache.LoadLockedReq_hits::total           49                       # number of LoadLockedReq hits
system.cpu.dcache.LoadLockedReq_misses::.cpu.data            2                       # number of LoadLockedReq misses
system.cpu.dcache.LoadLockedReq_misses::total            2                       # number of LoadLockedReq misses
system.cpu.dcache.LoadLockedReq_miss_latency::.cpu.data        98125                       # number of LoadLockedReq miss cycles
system.cpu.dcache.LoadLockedReq_miss_latency::total        98125                       # number of LoadLockedReq miss cycles
system.cpu.dcache.LoadLockedReq_accesses::.cpu.data           51                       # number of LoadLockedReq accesses(hits+misses)
system.cpu.dcache.LoadLockedReq_accesses::total           51                       # number of LoadLockedReq accesses(hits+misses)
system.cpu.dcache.LoadLockedReq_miss_rate::.cpu.data     0.039216                       # miss rate for LoadLockedReq accesses
system.cpu.dcache.LoadLockedReq_miss_rate::total     0.039216                       # miss rate for LoadLockedReq accesses
system.cpu.dcache.LoadLockedReq_avg_miss_latency::.cpu.data 49062.500000                       # average LoadLockedReq miss latency
system.cpu.dcache.LoadLockedReq_avg_miss_latency::total 49062.500000                       # average LoadLockedReq miss latency
system.cpu.dcache.LoadLockedReq_mshr_hits::.cpu.data            2                       # number of LoadLockedReq MSHR hits
system.cpu.dcache.LoadLockedReq_mshr_hits::total            2                       # number of LoadLockedReq MSHR hits
system.cpu.dcache.StoreCondReq_hits::.cpu.data           51                       # number of StoreCondReq hits
system.cpu.dcache.StoreCondReq_hits::total           51                       # number of StoreCondReq hits
system.cpu.dcache.StoreCondReq_accesses::.cpu.data           51                       # number of StoreCondReq accesses(hits+misses)
system.cpu.dcache.StoreCondReq_accesses::total           51                       # number of StoreCondReq accesses(hits+misses)
system.cpu.dcache.tags.pwrStateResidencyTicks::UNDEFINED  25011225000                       # Cumulative time (in ticks) in various power states
system.cpu.dcache.tags.tagsinuse           259.845935                       # Cycle average of tags in use
system.cpu.dcache.tags.total_refs            12827769                       # Total number of references to valid blocks.
system.cpu.dcache.tags.sampled_refs               324                       # Sample count of references to valid blocks.
system.cpu.dcache.tags.avg_refs          39591.879630                       # Average number of references to valid blocks.
system.cpu.dcache.tags.warmup_cycle            149000                       # Cycle when the warmup percentage was hit.
system.cpu.dcache.tags.occ_blocks::.cpu.data   259.845935                       # Average occupied blocks per requestor
system.cpu.dcache.tags.occ_percent::.cpu.data     0.507512                       # Average percentage of cache occupancy
system.cpu.dcache.tags.occ_percent::total     0.507512                       # Average percentage of cache occupancy
system.cpu.dcache.tags.occ_task_id_blocks::1024          317                       # Occupied blocks per task id
system.cpu.dcache.tags.age_task_id_blocks_1024::0           25                       # Occupied blocks per task id
system.cpu.dcache.tags.age_task_id_blocks_1024::1           39                       # Occupied blocks per task id
system.cpu.dcache.tags.age_task_id_blocks_1024::4          253                       # Occupied blocks per task id
system.cpu.dcache.tags.occ_task_id_percent::1024     0.619141                       # Percentage of cache occupancy per task id
system.cpu.dcache.tags.tag_accesses          51314520                       # Number of tag accesses
system.cpu.dcache.tags.data_accesses         51314520                       # Number of data accesses

---------- End Simulation Statistics   ----------
