
---------- Begin Simulation Statistics ----------
final_tick                                24524346875                       # Number of ticks from beginning of simulation (restored from checkpoints and never reset)
host_inst_rate                                 226294                       # Simulator instruction rate (inst/s)
host_mem_usage                                 696328                       # Number of bytes of host memory used
host_op_rate                                   241284                       # Simulator op (including micro ops) rate (op/s)
host_seconds                                   320.36                       # Real time elapsed on the host
host_tick_rate                               76552619                       # Simulator tick rate (ticks/s)
sim_freq                                 1000000000000                       # Frequency of simulated ticks
sim_insts                                    72495453                       # Number of instructions simulated
sim_ops                                      77297624                       # Number of ops (including micro ops) simulated
sim_seconds                                  0.024524                       # Number of seconds simulated
sim_ticks                                 24524346875                       # Number of ticks simulated
system.cpu.branchPred.BTBCorrect                    0                       # Number of correct BTB predictions (this stat may not work properly.
system.cpu.branchPred.BTBHitPct             85.926215                       # BTB Hit Percentage
system.cpu.branchPred.BTBHits                 4763611                       # Number of BTB hits
system.cpu.branchPred.BTBLookups              5543839                       # Number of BTB lookups
system.cpu.branchPred.RASInCorrect               1693                       # Number of incorrect RAS predictions.
system.cpu.branchPred.condIncorrect             94624                       # Number of conditional branches incorrect
system.cpu.branchPred.condPredicted           6661036                       # Number of conditional branches predicted
system.cpu.branchPred.indirectHits             470233                       # Number of indirect target hits.
system.cpu.branchPred.indirectLookups          471861                       # Number of indirect predictor lookups.
system.cpu.branchPred.indirectMisses             1628                       # Number of indirect misses.
system.cpu.branchPred.lookups                10764890                       # Number of BP lookups
system.cpu.branchPred.usedRAS                 1818476                       # Number of times the RAS was used to get a target.
system.cpu.branchPredindirectMispredicted        56767                       # Number of mispredicted indirect branches.
system.cpu.cc_regfile_reads                 261763845                       # number of cc regfile reads
system.cpu.cc_regfile_writes                 38851889                       # number of cc regfile writes
system.cpu.commit.amos                              0                       # Number of atomic instructions committed
system.cpu.commit.branchMispredicts             94161                       # The number of times a branch was mispredicted
system.cpu.commit.branches                   10448019                       # Number of branches committed
system.cpu.commit.bw_lim_events               1718097                       # number cycles where commit BW limit reached
system.cpu.commit.commitNonSpecStalls             117                       # The number of times commit has been forced to stall to communicate backwards
system.cpu.commit.commitSquashedInsts         1679573                       # The number of squashed insts skipped by commit
system.cpu.commit.committedInsts             72495453                       # Number of instructions committed
system.cpu.commit.committedOps               77297624                       # Number of ops (including micro ops) committed
system.cpu.commit.committed_per_cycle::samples     38941696                       # Number of insts commited each cycle
system.cpu.commit.committed_per_cycle::mean     1.984958                       # Number of insts commited each cycle
system.cpu.commit.committed_per_cycle::stdev     1.974874                       # Number of insts commited each cycle
system.cpu.commit.committed_per_cycle::underflows            0      0.00%      0.00% # Number of insts commited each cycle
system.cpu.commit.committed_per_cycle::0      6508476     16.71%     16.71% # Number of insts commited each cycle
system.cpu.commit.committed_per_cycle::1     15434236     39.63%     56.35% # Number of insts commited each cycle
system.cpu.commit.committed_per_cycle::2      7134624     18.32%     74.67% # Number of insts commited each cycle
system.cpu.commit.committed_per_cycle::3      2756917      7.08%     81.75% # Number of insts commited each cycle
system.cpu.commit.committed_per_cycle::4      2955922      7.59%     89.34% # Number of insts commited each cycle
system.cpu.commit.committed_per_cycle::5      1330998      3.42%     92.76% # Number of insts commited each cycle
system.cpu.commit.committed_per_cycle::6       617047      1.58%     94.34% # Number of insts commited each cycle
system.cpu.commit.committed_per_cycle::7       485379      1.25%     95.59% # Number of insts commited each cycle
system.cpu.commit.committed_per_cycle::8      1718097      4.41%    100.00% # Number of insts commited each cycle
system.cpu.commit.committed_per_cycle::overflows            0      0.00%    100.00% # Number of insts commited each cycle
system.cpu.commit.committed_per_cycle::min_value            0                       # Number of insts commited each cycle
system.cpu.commit.committed_per_cycle::max_value            8                       # Number of insts commited each cycle
system.cpu.commit.committed_per_cycle::total     38941696                       # Number of insts commited each cycle
system.cpu.commit.fp_insts                          0                       # Number of committed floating point instructions.
system.cpu.commit.function_calls              2070498                       # Number of function calls committed.
system.cpu.commit.int_insts                  71605204                       # Number of committed integer instructions.
system.cpu.commit.loads                       8669916                       # Number of loads committed
system.cpu.commit.membars                          52                       # Number of memory barriers committed
system.cpu.commit.op_class_0::No_OpClass            0      0.00%      0.00% # Class of committed instruction
system.cpu.commit.op_class_0::IntAlu         62456086     80.80%     80.80% # Class of committed instruction
system.cpu.commit.op_class_0::IntMult          913677      1.18%     81.98% # Class of committed instruction
system.cpu.commit.op_class_0::IntDiv                0      0.00%     81.98% # Class of committed instruction
system.cpu.commit.op_class_0::FloatAdd              0      0.00%     81.98% # Class of committed instruction
system.cpu.commit.op_class_0::FloatCmp              0      0.00%     81.98% # Class of committed instruction
system.cpu.commit.op_class_0::FloatCvt              0      0.00%     81.98% # Class of committed instruction
system.cpu.commit.op_class_0::FloatMult             0      0.00%     81.98% # Class of committed instruction
system.cpu.commit.op_class_0::FloatMultAcc            0      0.00%     81.98% # Class of committed instruction
system.cpu.commit.op_class_0::FloatDiv              0      0.00%     81.98% # Class of committed instruction
system.cpu.commit.op_class_0::FloatMisc             0      0.00%     81.98% # Class of committed instruction
system.cpu.commit.op_class_0::FloatSqrt             0      0.00%     81.98% # Class of committed instruction
system.cpu.commit.op_class_0::SimdAdd               0      0.00%     81.98% # Class of committed instruction
system.cpu.commit.op_class_0::SimdAddAcc            0      0.00%     81.98% # Class of committed instruction
system.cpu.commit.op_class_0::SimdAlu               0      0.00%     81.98% # Class of committed instruction
system.cpu.commit.op_class_0::SimdCmp               0      0.00%     81.98% # Class of committed instruction
system.cpu.commit.op_class_0::SimdCvt               0      0.00%     81.98% # Class of committed instruction
system.cpu.commit.op_class_0::SimdMisc              0      0.00%     81.98% # Class of committed instruction
system.cpu.commit.op_class_0::SimdMult              0      0.00%     81.98% # Class of committed instruction
system.cpu.commit.op_class_0::SimdMultAcc            0      0.00%     81.98% # Class of committed instruction
system.cpu.commit.op_class_0::SimdShift             0      0.00%     81.98% # Class of committed instruction
system.cpu.commit.op_class_0::SimdShiftAcc            0      0.00%     81.98% # Class of committed instruction
system.cpu.commit.op_class_0::SimdDiv               0      0.00%     81.98% # Class of committed instruction
system.cpu.commit.op_class_0::SimdSqrt              0      0.00%     81.98% # Class of committed instruction
system.cpu.commit.op_class_0::SimdFloatAdd            0      0.00%     81.98% # Class of committed instruction
system.cpu.commit.op_class_0::SimdFloatAlu            0      0.00%     81.98% # Class of committed instruction
system.cpu.commit.op_class_0::SimdFloatCmp            0      0.00%     81.98% # Class of committed instruction
system.cpu.commit.op_class_0::SimdFloatCvt            0      0.00%     81.98% # Class of committed instruction
system.cpu.commit.op_class_0::SimdFloatDiv            0      0.00%     81.98% # Class of committed instruction
system.cpu.commit.op_class_0::SimdFloatMisc            4      0.00%     81.98% # Class of committed instruction
system.cpu.commit.op_class_0::SimdFloatMult            0      0.00%     81.98% # Class of committed instruction
system.cpu.commit.op_class_0::SimdFloatMultAcc            0      0.00%     81.98% # Class of committed instruction
system.cpu.commit.op_class_0::SimdFloatSqrt            0      0.00%     81.98% # Class of committed instruction
system.cpu.commit.op_class_0::SimdReduceAdd            0      0.00%     81.98% # Class of committed instruction
system.cpu.commit.op_class_0::SimdReduceAlu            0      0.00%     81.98% # Class of committed instruction
system.cpu.commit.op_class_0::SimdReduceCmp            0      0.00%     81.98% # Class of committed instruction
system.cpu.commit.op_class_0::SimdFloatReduceAdd            0      0.00%     81.98% # Class of committed instruction
system.cpu.commit.op_class_0::SimdFloatReduceCmp            0      0.00%     81.98% # Class of committed instruction
system.cpu.commit.op_class_0::SimdAes               0      0.00%     81.98% # Class of committed instruction
system.cpu.commit.op_class_0::SimdAesMix            0      0.00%     81.98% # Class of committed instruction
system.cpu.commit.op_class_0::SimdSha1Hash            0      0.00%     81.98% # Class of committed instruction
system.cpu.commit.op_class_0::SimdSha1Hash2            0      0.00%     81.98% # Class of committed instruction
system.cpu.commit.op_class_0::SimdSha256Hash            0      0.00%     81.98% # Class of committed instruction
system.cpu.commit.op_class_0::SimdSha256Hash2            0      0.00%     81.98% # Class of committed instruction
system.cpu.commit.op_class_0::SimdShaSigma2            0      0.00%     81.98% # Class of committed instruction
system.cpu.commit.op_class_0::SimdShaSigma3            0      0.00%     81.98% # Class of committed instruction
system.cpu.commit.op_class_0::SimdPredAlu            0      0.00%     81.98% # Class of committed instruction
system.cpu.commit.op_class_0::MemRead         8669916     11.22%     93.20% # Class of committed instruction
system.cpu.commit.op_class_0::MemWrite        5257941      6.80%    100.00% # Class of committed instruction
system.cpu.commit.op_class_0::FloatMemRead            0      0.00%    100.00% # Class of committed instruction
system.cpu.commit.op_class_0::FloatMemWrite            0      0.00%    100.00% # Class of committed instruction
system.cpu.commit.op_class_0::IprAccess             0      0.00%    100.00% # Class of committed instruction
system.cpu.commit.op_class_0::InstPrefetch            0      0.00%    100.00% # Class of committed instruction
system.cpu.commit.op_class_0::total          77297624                       # Class of committed instruction
system.cpu.commit.refs                       13927857                       # Number of memory references committed
system.cpu.commit.swp_count                         0                       # Number of s/w prefetches committed
system.cpu.commit.vec_insts                         0                       # Number of committed Vector instructions.
system.cpu.committedInsts                    72495453                       # Number of Instructions Simulated
system.cpu.committedOps                      77297624                       # Number of Ops (including micro ops) Simulated
system.cpu.cpi                               0.541261                       # CPI: Cycles Per Instruction
system.cpu.cpi_total                         0.541261                       # CPI: Total CPI of All Threads
system.cpu.decode.BlockedCycles               2074967                       # Number of cycles decode is blocked
system.cpu.decode.BranchMispred                   481                       # Number of times decode detected a branch misprediction
system.cpu.decode.BranchResolved              4874647                       # Number of times decode resolved a branch
system.cpu.decode.DecodedInsts               79763928                       # Number of instructions handled by decode
system.cpu.decode.IdleCycles                  1752957                       # Number of cycles decode is idle
system.cpu.decode.RunCycles                  33561203                       # Number of cycles decode is running
system.cpu.decode.SquashCycles                  94858                       # Number of cycles decode is squashing
system.cpu.decode.SquashedInsts                389503                       # Number of squashed instructions handled by decode
system.cpu.decode.UnblockCycles               1713487                       # Number of cycles decode is unblocking
system.cpu.dtb.accesses                             0                       # DTB accesses
system.cpu.dtb.align_faults                         0                       # Number of TLB faults due to alignment restrictions
system.cpu.dtb.domain_faults                        0                       # Number of TLB faults due to domain restrictions
system.cpu.dtb.flush_entries                        0                       # Number of entries that have been flushed from TLB
system.cpu.dtb.flush_tlb                            0                       # Number of times complete TLB was flushed
system.cpu.dtb.flush_tlb_asid                       0                       # Number of times TLB was flushed by ASID
system.cpu.dtb.flush_tlb_mva                        0                       # Number of times TLB was flushed by MVA
system.cpu.dtb.flush_tlb_mva_asid                   0                       # Number of times TLB was flushed by MVA & ASID
system.cpu.dtb.hits                                 0                       # DTB hits
system.cpu.dtb.inst_accesses                        0                       # ITB inst accesses
system.cpu.dtb.inst_hits                            0                       # ITB inst hits
system.cpu.dtb.inst_misses                          0                       # ITB inst misses
system.cpu.dtb.misses                               0                       # DTB misses
system.cpu.dtb.perms_faults                         0                       # Number of TLB faults due to permissions restrictions
system.cpu.dtb.prefetch_faults                      0                       # Number of TLB faults due to prefetch
system.cpu.dtb.read_accesses                        0                       # DTB read accesses
system.cpu.dtb.read_hits                            0                       # DTB read hits
system.cpu.dtb.read_misses                          0                       # DTB read misses
system.cpu.dtb.stage2_mmu.stage2_tlb.accesses            0                       # DTB accesses
system.cpu.dtb.stage2_mmu.stage2_tlb.align_faults            0                       # Number of TLB faults due to alignment restrictions
system.cpu.dtb.stage2_mmu.stage2_tlb.domain_faults            0                       # Number of TLB faults due to domain restrictions
system.cpu.dtb.stage2_mmu.stage2_tlb.flush_entries            0                       # Number of entries that have been flushed from TLB
system.cpu.dtb.stage2_mmu.stage2_tlb.flush_tlb            0                       # Number of times complete TLB was flushed
system.cpu.dtb.stage2_mmu.stage2_tlb.flush_tlb_asid            0                       # Number of times TLB was flushed by ASID
system.cpu.dtb.stage2_mmu.stage2_tlb.flush_tlb_mva            0                       # Number of times TLB was flushed by MVA
system.cpu.dtb.stage2_mmu.stage2_tlb.flush_tlb_mva_asid            0                       # Number of times TLB was flushed by MVA & ASID
system.cpu.dtb.stage2_mmu.stage2_tlb.hits            0                       # DTB hits
system.cpu.dtb.stage2_mmu.stage2_tlb.inst_accesses            0                       # ITB inst accesses
system.cpu.dtb.stage2_mmu.stage2_tlb.inst_hits            0                       # ITB inst hits
system.cpu.dtb.stage2_mmu.stage2_tlb.inst_misses            0                       # ITB inst misses
system.cpu.dtb.stage2_mmu.stage2_tlb.misses            0                       # DTB misses
system.cpu.dtb.stage2_mmu.stage2_tlb.perms_faults            0                       # Number of TLB faults due to permissions restrictions
system.cpu.dtb.stage2_mmu.stage2_tlb.prefetch_faults            0                       # Number of TLB faults due to prefetch
system.cpu.dtb.stage2_mmu.stage2_tlb.read_accesses            0                       # DTB read accesses
system.cpu.dtb.stage2_mmu.stage2_tlb.read_hits            0                       # DTB read hits
system.cpu.dtb.stage2_mmu.stage2_tlb.read_misses            0                       # DTB read misses
system.cpu.dtb.stage2_mmu.stage2_tlb.walker.walkRequestOrigin_Requested::Data            0                       # Table walker requests started/completed, data/inst
system.cpu.dtb.stage2_mmu.stage2_tlb.walker.walkRequestOrigin_Requested::Inst            0                       # Table walker requests started/completed, data/inst
system.cpu.dtb.stage2_mmu.stage2_tlb.walker.walkRequestOrigin_Requested::total            0                       # Table walker requests started/completed, data/inst
system.cpu.dtb.stage2_mmu.stage2_tlb.walker.walkRequestOrigin_Completed::Data            0                       # Table walker requests started/completed, data/inst
system.cpu.dtb.stage2_mmu.stage2_tlb.walker.walkRequestOrigin_Completed::Inst            0                       # Table walker requests started/completed, data/inst
system.cpu.dtb.stage2_mmu.stage2_tlb.walker.walkRequestOrigin_Completed::total            0                       # Table walker requests started/completed, data/inst
system.cpu.dtb.stage2_mmu.stage2_tlb.walker.walkRequestOrigin::total            0                       # Table walker requests started/completed, data/inst
system.cpu.dtb.stage2_mmu.stage2_tlb.walker.walks            0                       # Table walker walks requested
system.cpu.dtb.stage2_mmu.stage2_tlb.write_accesses            0                       # DTB write accesses
system.cpu.dtb.stage2_mmu.stage2_tlb.write_hits            0                       # DTB write hits
system.cpu.dtb.stage2_mmu.stage2_tlb.write_misses            0                       # DTB write misses
system.cpu.dtb.walker.walkRequestOrigin_Requested::Data            0                       # Table walker requests started/completed, data/inst
system.cpu.dtb.walker.walkRequestOrigin_Requested::Inst            0                       # Table walker requests started/completed, data/inst
system.cpu.dtb.walker.walkRequestOrigin_Requested::total            0                       # Table walker requests started/completed, data/inst
system.cpu.dtb.walker.walkRequestOrigin_Completed::Data            0                       # Table walker requests started/completed, data/inst
system.cpu.dtb.walker.walkRequestOrigin_Completed::Inst            0                       # Table walker requests started/completed, data/inst
system.cpu.dtb.walker.walkRequestOrigin_Completed::total            0                       # Table walker requests started/completed, data/inst
system.cpu.dtb.walker.walkRequestOrigin::total            0                       # Table walker requests started/completed, data/inst
system.cpu.dtb.walker.walks                         0                       # Table walker walks requested
system.cpu.dtb.write_accesses                       0                       # DTB write accesses
system.cpu.dtb.write_hits                           0                       # DTB write hits
system.cpu.dtb.write_misses                         0                       # DTB write misses
system.cpu.fetch.Branches                    10764890                       # Number of branches that fetch encountered
system.cpu.fetch.CacheLines                  23986460                       # Number of cache lines fetched
system.cpu.fetch.Cycles                      38989444                       # Number of cycles fetch has run and was not squashing or blocked
system.cpu.fetch.IcacheSquashes                   514                       # Number of outstanding Icache misses that were squashed
system.cpu.fetch.IcacheWaitRetryStallCycles          703                       # Number of stall cycles due to full MSHR
system.cpu.fetch.Insts                       75578765                       # Number of instructions fetch has processed
system.cpu.fetch.MiscStallCycles                  266                       # Number of cycles fetch has spent waiting on interrupts, or bad addresses, or out of MSHRs
system.cpu.fetch.PendingTrapStallCycles           157                       # Number of stall cycles due to pending traps
system.cpu.fetch.SquashCycles                  190656                       # Number of cycles fetch has spent squashing
system.cpu.fetch.branchRate                  0.274342                       # Number of branch fetches per cycle
system.cpu.fetch.icacheStallCycles             111574                       # Number of cycles fetch is stalled on an Icache miss
system.cpu.fetch.predictedBranches            7052320                       # Number of branches that fetch has predicted taken
system.cpu.fetch.rate                        1.926116                       # Number of inst fetches per cycle
system.cpu.fetch.rateDist::samples           39197472                       # Number of instructions fetched each cycle (Total)
system.cpu.fetch.rateDist::mean              2.052148                       # Number of instructions fetched each cycle (Total)
system.cpu.fetch.rateDist::stdev             0.981181                       # Number of instructions fetched each cycle (Total)
system.cpu.fetch.rateDist::underflows               0      0.00%      0.00% # Number of instructions fetched each cycle (Total)
system.cpu.fetch.rateDist::0                   218516      0.56%      0.56% # Number of instructions fetched each cycle (Total)
system.cpu.fetch.rateDist::1                 17243745     43.99%     44.55% # Number of instructions fetched each cycle (Total)
system.cpu.fetch.rateDist::2                  2010353      5.13%     49.68% # Number of instructions fetched each cycle (Total)
system.cpu.fetch.rateDist::3                 19724858     50.32%    100.00% # Number of instructions fetched each cycle (Total)
system.cpu.fetch.rateDist::overflows                0      0.00%    100.00% # Number of instructions fetched each cycle (Total)
system.cpu.fetch.rateDist::min_value                0                       # Number of instructions fetched each cycle (Total)
system.cpu.fetch.rateDist::max_value                3                       # Number of instructions fetched each cycle (Total)
system.cpu.fetch.rateDist::total             39197472                       # Number of instructions fetched each cycle (Total)
system.cpu.idleCycles                           41484                       # Total number of cycles that the CPU has spent unscheduled due to idling
system.cpu.iew.branchMispredicts                95141                       # Number of branch mispredicts detected at execute
system.cpu.iew.exec_branches                 10478668                       # Number of branches executed
system.cpu.iew.exec_nop                             2                       # number of nop insts executed
system.cpu.iew.exec_rate                     1.985810                       # Inst execution rate
system.cpu.iew.exec_refs                     14031399                       # number of memory reference insts executed
system.cpu.iew.exec_stores                    5262119                       # Number of stores executed
system.cpu.iew.exec_swp                             0                       # number of swp insts executed
system.cpu.iew.iewBlockCycles                  161056                       # Number of cycles IEW is blocking
system.cpu.iew.iewBranchMispredictRate       0.907949                       # Percentage of branch mispredicts
system.cpu.iew.iewBranchPercentage          13.447789                       # Percentage of branches executed
system.cpu.iew.iewDispLoadInsts               8863518                       # Number of dispatched load instructions
system.cpu.iew.iewDispNonSpecInsts                 68                       # Number of dispatched non-speculative instructions
system.cpu.iew.iewDispSquashedInsts                 0                       # Number of squashed instructions skipped by dispatch
system.cpu.iew.iewDispStoreInsts              5328572                       # Number of dispatched store instructions
system.cpu.iew.iewDispatchedInsts            79166269                       # Number of instructions dispatched to IQ
system.cpu.iew.iewExecLoadInsts               8769280                       # Number of load instructions executed
system.cpu.iew.iewExecSquashedInsts             97507                       # Number of squashed instructions skipped in execute
system.cpu.iew.iewExecutedInsts              77921124                       # Number of executed instructions
system.cpu.iew.iewIQFullEvents                      4                       # Number of times the IQ has become full, causing a stall
system.cpu.iew.iewIdleCycles                        0                       # Number of cycles IEW is idle
system.cpu.iew.iewLSQFullEvents                   156                       # Number of times the LSQ has become full, causing a stall
system.cpu.iew.iewSquashCycles                  94858                       # Number of cycles IEW is squashing
system.cpu.iew.iewUnblockCycles                   160                       # Number of cycles IEW is unblocking
system.cpu.iew.lsq.thread0.blockedLoads             0                       # Number of blocked loads due to partial load-store forwarding
system.cpu.iew.lsq.thread0.cacheBlocked            55                       # Number of times an access to memory failed due to the cache being blocked
system.cpu.iew.lsq.thread0.forwLoads           900167                       # Number of loads that had data forwarded from stores
system.cpu.iew.lsq.thread0.ignoredResponses           52                       # Number of memory responses ignored because the instruction is squashed
system.cpu.iew.lsq.thread0.invAddrLoads             0                       # Number of loads ignored due to an invalid address
system.cpu.iew.lsq.thread0.invAddrSwpfs             0                       # Number of software prefetches ignored due to an invalid address
system.cpu.iew.lsq.thread0.memOrderViolation          690                       # Number of memory ordering violations
system.cpu.iew.lsq.thread0.rescheduledLoads         8049                       # Number of loads that were rescheduled
system.cpu.iew.lsq.thread0.squashedLoads       193602                       # Number of loads squashed
system.cpu.iew.lsq.thread0.squashedStores        70631                       # Number of stores squashed
system.cpu.iew.memOrderViolationEvents            690                       # Number of memory order violations
system.cpu.iew.predictedNotTakenIncorrect        13634                       # Number of branches that were predicted not taken incorrectly
system.cpu.iew.predictedTakenIncorrect          81507                       # Number of branches that were predicted taken incorrectly
system.cpu.iew.wb_consumers                 124473377                       # num instructions consuming a value
system.cpu.iew.wb_count                      77879606                       # cumulative count of insts written-back
system.cpu.iew.wb_fanout                     0.473114                       # average fanout of values written-back
system.cpu.iew.wb_producers                  58890140                       # num instructions producing a value
system.cpu.iew.wb_rate                       1.984752                       # insts written-back per cycle
system.cpu.iew.wb_sent                       77886343                       # cumulative count of insts sent to commit
system.cpu.int_regfile_reads                 94445653                       # number of integer regfile reads
system.cpu.int_regfile_writes                55171354                       # number of integer regfile writes
system.cpu.ipc                               1.847538                       # IPC: Instructions Per Cycle
system.cpu.ipc_total                         1.847538                       # IPC: Total IPC of All Threads
system.cpu.iq.FU_type_0::No_OpClass                 8      0.00%      0.00% # Type of FU issued
system.cpu.iq.FU_type_0::IntAlu              63015168     80.77%     80.77% # Type of FU issued
system.cpu.iq.FU_type_0::IntMult               920911      1.18%     81.95% # Type of FU issued
system.cpu.iq.FU_type_0::IntDiv                     0      0.00%     81.95% # Type of FU issued
system.cpu.iq.FU_type_0::FloatAdd                   0      0.00%     81.95% # Type of FU issued
system.cpu.iq.FU_type_0::FloatCmp                   0      0.00%     81.95% # Type of FU issued
system.cpu.iq.FU_type_0::FloatCvt                   0      0.00%     81.95% # Type of FU issued
system.cpu.iq.FU_type_0::FloatMult                  0      0.00%     81.95% # Type of FU issued
system.cpu.iq.FU_type_0::FloatMultAcc               0      0.00%     81.95% # Type of FU issued
system.cpu.iq.FU_type_0::FloatDiv                   0      0.00%     81.95% # Type of FU issued
system.cpu.iq.FU_type_0::FloatMisc                  0      0.00%     81.95% # Type of FU issued
system.cpu.iq.FU_type_0::FloatSqrt                  0      0.00%     81.95% # Type of FU issued
system.cpu.iq.FU_type_0::SimdAdd                    0      0.00%     81.95% # Type of FU issued
system.cpu.iq.FU_type_0::SimdAddAcc                 0      0.00%     81.95% # Type of FU issued
system.cpu.iq.FU_type_0::SimdAlu                    0      0.00%     81.95% # Type of FU issued
system.cpu.iq.FU_type_0::SimdCmp                    0      0.00%     81.95% # Type of FU issued
system.cpu.iq.FU_type_0::SimdCvt                    0      0.00%     81.95% # Type of FU issued
system.cpu.iq.FU_type_0::SimdMisc                   0      0.00%     81.95% # Type of FU issued
system.cpu.iq.FU_type_0::SimdMult                   0      0.00%     81.95% # Type of FU issued
system.cpu.iq.FU_type_0::SimdMultAcc                0      0.00%     81.95% # Type of FU issued
system.cpu.iq.FU_type_0::SimdShift                  0      0.00%     81.95% # Type of FU issued
system.cpu.iq.FU_type_0::SimdShiftAcc               0      0.00%     81.95% # Type of FU issued
system.cpu.iq.FU_type_0::SimdDiv                    0      0.00%     81.95% # Type of FU issued
system.cpu.iq.FU_type_0::SimdSqrt                   0      0.00%     81.95% # Type of FU issued
system.cpu.iq.FU_type_0::SimdFloatAdd               0      0.00%     81.95% # Type of FU issued
system.cpu.iq.FU_type_0::SimdFloatAlu               0      0.00%     81.95% # Type of FU issued
system.cpu.iq.FU_type_0::SimdFloatCmp               0      0.00%     81.95% # Type of FU issued
system.cpu.iq.FU_type_0::SimdFloatCvt               0      0.00%     81.95% # Type of FU issued
system.cpu.iq.FU_type_0::SimdFloatDiv               0      0.00%     81.95% # Type of FU issued
system.cpu.iq.FU_type_0::SimdFloatMisc              4      0.00%     81.95% # Type of FU issued
system.cpu.iq.FU_type_0::SimdFloatMult              0      0.00%     81.95% # Type of FU issued
system.cpu.iq.FU_type_0::SimdFloatMultAcc            0      0.00%     81.95% # Type of FU issued
system.cpu.iq.FU_type_0::SimdFloatSqrt              0      0.00%     81.95% # Type of FU issued
system.cpu.iq.FU_type_0::SimdReduceAdd              0      0.00%     81.95% # Type of FU issued
system.cpu.iq.FU_type_0::SimdReduceAlu              0      0.00%     81.95% # Type of FU issued
system.cpu.iq.FU_type_0::SimdReduceCmp              0      0.00%     81.95% # Type of FU issued
system.cpu.iq.FU_type_0::SimdFloatReduceAdd            0      0.00%     81.95% # Type of FU issued
system.cpu.iq.FU_type_0::SimdFloatReduceCmp            0      0.00%     81.95% # Type of FU issued
system.cpu.iq.FU_type_0::SimdAes                    0      0.00%     81.95% # Type of FU issued
system.cpu.iq.FU_type_0::SimdAesMix                 0      0.00%     81.95% # Type of FU issued
system.cpu.iq.FU_type_0::SimdSha1Hash               0      0.00%     81.95% # Type of FU issued
system.cpu.iq.FU_type_0::SimdSha1Hash2              0      0.00%     81.95% # Type of FU issued
system.cpu.iq.FU_type_0::SimdSha256Hash             0      0.00%     81.95% # Type of FU issued
system.cpu.iq.FU_type_0::SimdSha256Hash2            0      0.00%     81.95% # Type of FU issued
system.cpu.iq.FU_type_0::SimdShaSigma2              0      0.00%     81.95% # Type of FU issued
system.cpu.iq.FU_type_0::SimdShaSigma3              0      0.00%     81.95% # Type of FU issued
system.cpu.iq.FU_type_0::SimdPredAlu                0      0.00%     81.95% # Type of FU issued
system.cpu.iq.FU_type_0::MemRead              8810677     11.29%     93.24% # Type of FU issued
system.cpu.iq.FU_type_0::MemWrite             5271863      6.76%    100.00% # Type of FU issued
system.cpu.iq.FU_type_0::FloatMemRead               0      0.00%    100.00% # Type of FU issued
system.cpu.iq.FU_type_0::FloatMemWrite              0      0.00%    100.00% # Type of FU issued
system.cpu.iq.FU_type_0::IprAccess                  0      0.00%    100.00% # Type of FU issued
system.cpu.iq.FU_type_0::InstPrefetch               0      0.00%    100.00% # Type of FU issued
system.cpu.iq.FU_type_0::total               78018631                       # Type of FU issued
system.cpu.iq.fp_alu_accesses                       0                       # Number of floating point alu accesses
system.cpu.iq.fp_inst_queue_reads                   0                       # Number of floating instruction queue reads
system.cpu.iq.fp_inst_queue_wakeup_accesses            0                       # Number of floating instruction queue wakeup accesses
system.cpu.iq.fp_inst_queue_writes                  0                       # Number of floating instruction queue writes
system.cpu.iq.fu_busy_cnt                    22326602                       # FU busy when requested
system.cpu.iq.fu_busy_rate                   0.286170                       # FU busy rate (busy events/executed inst)
system.cpu.iq.fu_full::No_OpClass                   0      0.00%      0.00% # attempts to use FU when none available
system.cpu.iq.fu_full::IntAlu                18661093     83.58%     83.58% # attempts to use FU when none available
system.cpu.iq.fu_full::IntMult                     88      0.00%     83.58% # attempts to use FU when none available
system.cpu.iq.fu_full::IntDiv                       0      0.00%     83.58% # attempts to use FU when none available
system.cpu.iq.fu_full::FloatAdd                     0      0.00%     83.58% # attempts to use FU when none available
system.cpu.iq.fu_full::FloatCmp                     0      0.00%     83.58% # attempts to use FU when none available
system.cpu.iq.fu_full::FloatCvt                     0      0.00%     83.58% # attempts to use FU when none available
system.cpu.iq.fu_full::FloatMult                    0      0.00%     83.58% # attempts to use FU when none available
system.cpu.iq.fu_full::FloatMultAcc                 0      0.00%     83.58% # attempts to use FU when none available
system.cpu.iq.fu_full::FloatDiv                     0      0.00%     83.58% # attempts to use FU when none available
system.cpu.iq.fu_full::FloatMisc                    0      0.00%     83.58% # attempts to use FU when none available
system.cpu.iq.fu_full::FloatSqrt                    0      0.00%     83.58% # attempts to use FU when none available
system.cpu.iq.fu_full::SimdAdd                      0      0.00%     83.58% # attempts to use FU when none available
system.cpu.iq.fu_full::SimdAddAcc                   0      0.00%     83.58% # attempts to use FU when none available
system.cpu.iq.fu_full::SimdAlu                      0      0.00%     83.58% # attempts to use FU when none available
system.cpu.iq.fu_full::SimdCmp                      0      0.00%     83.58% # attempts to use FU when none available
system.cpu.iq.fu_full::SimdCvt                      0      0.00%     83.58% # attempts to use FU when none available
system.cpu.iq.fu_full::SimdMisc                     0      0.00%     83.58% # attempts to use FU when none available
system.cpu.iq.fu_full::SimdMult                     0      0.00%     83.58% # attempts to use FU when none available
system.cpu.iq.fu_full::SimdMultAcc                  0      0.00%     83.58% # attempts to use FU when none available
system.cpu.iq.fu_full::SimdShift                    0      0.00%     83.58% # attempts to use FU when none available
system.cpu.iq.fu_full::SimdShiftAcc                 0      0.00%     83.58% # attempts to use FU when none available
system.cpu.iq.fu_full::SimdDiv                      0      0.00%     83.58% # attempts to use FU when none available
system.cpu.iq.fu_full::SimdSqrt                     0      0.00%     83.58% # attempts to use FU when none available
system.cpu.iq.fu_full::SimdFloatAdd                 0      0.00%     83.58% # attempts to use FU when none available
system.cpu.iq.fu_full::SimdFloatAlu                 0      0.00%     83.58% # attempts to use FU when none available
system.cpu.iq.fu_full::SimdFloatCmp                 0      0.00%     83.58% # attempts to use FU when none available
system.cpu.iq.fu_full::SimdFloatCvt                 0      0.00%     83.58% # attempts to use FU when none available
system.cpu.iq.fu_full::SimdFloatDiv                 0      0.00%     83.58% # attempts to use FU when none available
system.cpu.iq.fu_full::SimdFloatMisc                0      0.00%     83.58% # attempts to use FU when none available
system.cpu.iq.fu_full::SimdFloatMult                0      0.00%     83.58% # attempts to use FU when none available
system.cpu.iq.fu_full::SimdFloatMultAcc             0      0.00%     83.58% # attempts to use FU when none available
system.cpu.iq.fu_full::SimdFloatSqrt                0      0.00%     83.58% # attempts to use FU when none available
system.cpu.iq.fu_full::SimdReduceAdd                0      0.00%     83.58% # attempts to use FU when none available
system.cpu.iq.fu_full::SimdReduceAlu                0      0.00%     83.58% # attempts to use FU when none available
system.cpu.iq.fu_full::SimdReduceCmp                0      0.00%     83.58% # attempts to use FU when none available
system.cpu.iq.fu_full::SimdFloatReduceAdd            0      0.00%     83.58% # attempts to use FU when none available
system.cpu.iq.fu_full::SimdFloatReduceCmp            0      0.00%     83.58% # attempts to use FU when none available
system.cpu.iq.fu_full::SimdAes                      0      0.00%     83.58% # attempts to use FU when none available
system.cpu.iq.fu_full::SimdAesMix                   0      0.00%     83.58% # attempts to use FU when none available
system.cpu.iq.fu_full::SimdSha1Hash                 0      0.00%     83.58% # attempts to use FU when none available
system.cpu.iq.fu_full::SimdSha1Hash2                0      0.00%     83.58% # attempts to use FU when none available
system.cpu.iq.fu_full::SimdSha256Hash               0      0.00%     83.58% # attempts to use FU when none available
system.cpu.iq.fu_full::SimdSha256Hash2              0      0.00%     83.58% # attempts to use FU when none available
system.cpu.iq.fu_full::SimdShaSigma2                0      0.00%     83.58% # attempts to use FU when none available
system.cpu.iq.fu_full::SimdShaSigma3                0      0.00%     83.58% # attempts to use FU when none available
system.cpu.iq.fu_full::SimdPredAlu                  0      0.00%     83.58% # attempts to use FU when none available
system.cpu.iq.fu_full::MemRead                2716245     12.17%     95.75% # attempts to use FU when none available
system.cpu.iq.fu_full::MemWrite                949176      4.25%    100.00% # attempts to use FU when none available
system.cpu.iq.fu_full::FloatMemRead                 0      0.00%    100.00% # attempts to use FU when none available
system.cpu.iq.fu_full::FloatMemWrite                0      0.00%    100.00% # attempts to use FU when none available
system.cpu.iq.fu_full::IprAccess                    0      0.00%    100.00% # attempts to use FU when none available
system.cpu.iq.fu_full::InstPrefetch                 0      0.00%    100.00% # attempts to use FU when none available
system.cpu.iq.int_alu_accesses              100345225                       # Number of integer alu accesses
system.cpu.iq.int_inst_queue_reads          217681868                       # Number of integer instruction queue reads
system.cpu.iq.int_inst_queue_wakeup_accesses     77879606                       # Number of integer instruction queue wakeup accesses
system.cpu.iq.int_inst_queue_writes          81035597                       # Number of integer instruction queue writes
system.cpu.iq.iqInstsAdded                   79166147                       # Number of instructions added to the IQ (excludes non-spec)
system.cpu.iq.iqInstsIssued                  78018631                       # Number of instructions issued
system.cpu.iq.iqNonSpecInstsAdded                 120                       # Number of non-speculative instructions added to the IQ
system.cpu.iq.iqSquashedInstsExamined         1868642                       # Number of squashed instructions iterated over during squash; mainly for profiling
system.cpu.iq.iqSquashedInstsIssued            120532                       # Number of squashed instructions issued
system.cpu.iq.iqSquashedNonSpecRemoved              3                       # Number of squashed non-spec instructions that were removed
system.cpu.iq.iqSquashedOperandsExamined      5916816                       # Number of squashed operands that are examined and possibly removed from graph
system.cpu.iq.issued_per_cycle::samples      39197472                       # Number of insts issued each cycle
system.cpu.iq.issued_per_cycle::mean         1.990400                       # Number of insts issued each cycle
system.cpu.iq.issued_per_cycle::stdev        0.772837                       # Number of insts issued each cycle
system.cpu.iq.issued_per_cycle::underflows            0      0.00%      0.00% # Number of insts issued each cycle
system.cpu.iq.issued_per_cycle::0             1626752      4.15%      4.15% # Number of insts issued each cycle
system.cpu.iq.issued_per_cycle::1             6632556     16.92%     21.07% # Number of insts issued each cycle
system.cpu.iq.issued_per_cycle::2            21811428     55.64%     76.72% # Number of insts issued each cycle
system.cpu.iq.issued_per_cycle::3             8743725     22.31%     99.02% # Number of insts issued each cycle
system.cpu.iq.issued_per_cycle::4              383011      0.98%    100.00% # Number of insts issued each cycle
system.cpu.iq.issued_per_cycle::5                   0      0.00%    100.00% # Number of insts issued each cycle
system.cpu.iq.issued_per_cycle::6                   0      0.00%    100.00% # Number of insts issued each cycle
system.cpu.iq.issued_per_cycle::7                   0      0.00%    100.00% # Number of insts issued each cycle
system.cpu.iq.issued_per_cycle::8                   0      0.00%    100.00% # Number of insts issued each cycle
system.cpu.iq.issued_per_cycle::overflows            0      0.00%    100.00% # Number of insts issued each cycle
system.cpu.iq.issued_per_cycle::min_value            0                       # Number of insts issued each cycle
system.cpu.iq.issued_per_cycle::max_value            4                       # Number of insts issued each cycle
system.cpu.iq.issued_per_cycle::total        39197472                       # Number of insts issued each cycle
system.cpu.iq.rate                           1.988295                       # Inst issue rate
system.cpu.iq.vec_alu_accesses                      0                       # Number of vector alu accesses
system.cpu.iq.vec_inst_queue_reads                  0                       # Number of vector instruction queue reads
system.cpu.iq.vec_inst_queue_wakeup_accesses            0                       # Number of vector instruction queue wakeup accesses
system.cpu.iq.vec_inst_queue_writes                 0                       # Number of vector instruction queue writes
system.cpu.itb.accesses                             0                       # DTB accesses
system.cpu.itb.align_faults                         0                       # Number of TLB faults due to alignment restrictions
system.cpu.itb.domain_faults                        0                       # Number of TLB faults due to domain restrictions
system.cpu.itb.flush_entries                        0                       # Number of entries that have been flushed from TLB
system.cpu.itb.flush_tlb                            0                       # Number of times complete TLB was flushed
system.cpu.itb.flush_tlb_asid                       0                       # Number of times TLB was flushed by ASID
system.cpu.itb.flush_tlb_mva                        0                       # Number of times TLB was flushed by MVA
system.cpu.itb.flush_tlb_mva_asid                   0                       # Number of times TLB was flushed by MVA & ASID
system.cpu.itb.hits                                 0                       # DTB hits
system.cpu.itb.inst_accesses                        0                       # ITB inst accesses
system.cpu.itb.inst_hits                            0                       # ITB inst hits
system.cpu.itb.inst_misses                          0                       # ITB inst misses
system.cpu.itb.misses                               0                       # DTB misses
system.cpu.itb.perms_faults                         0                       # Number of TLB faults due to permissions restrictions
system.cpu.itb.prefetch_faults                      0                       # Number of TLB faults due to prefetch
system.cpu.itb.read_accesses                        0                       # DTB read accesses
system.cpu.itb.read_hits                            0                       # DTB read hits
system.cpu.itb.read_misses                          0                       # DTB read misses
system.cpu.itb.stage2_mmu.stage2_tlb.accesses            0                       # DTB accesses
system.cpu.itb.stage2_mmu.stage2_tlb.align_faults            0                       # Number of TLB faults due to alignment restrictions
system.cpu.itb.stage2_mmu.stage2_tlb.domain_faults            0                       # Number of TLB faults due to domain restrictions
system.cpu.itb.stage2_mmu.stage2_tlb.flush_entries            0                       # Number of entries that have been flushed from TLB
system.cpu.itb.stage2_mmu.stage2_tlb.flush_tlb            0                       # Number of times complete TLB was flushed
system.cpu.itb.stage2_mmu.stage2_tlb.flush_tlb_asid            0                       # Number of times TLB was flushed by ASID
system.cpu.itb.stage2_mmu.stage2_tlb.flush_tlb_mva            0                       # Number of times TLB was flushed by MVA
system.cpu.itb.stage2_mmu.stage2_tlb.flush_tlb_mva_asid            0                       # Number of times TLB was flushed by MVA & ASID
system.cpu.itb.stage2_mmu.stage2_tlb.hits            0                       # DTB hits
system.cpu.itb.stage2_mmu.stage2_tlb.inst_accesses            0                       # ITB inst accesses
system.cpu.itb.stage2_mmu.stage2_tlb.inst_hits            0                       # ITB inst hits
system.cpu.itb.stage2_mmu.stage2_tlb.inst_misses            0                       # ITB inst misses
system.cpu.itb.stage2_mmu.stage2_tlb.misses            0                       # DTB misses
system.cpu.itb.stage2_mmu.stage2_tlb.perms_faults            0                       # Number of TLB faults due to permissions restrictions
system.cpu.itb.stage2_mmu.stage2_tlb.prefetch_faults            0                       # Number of TLB faults due to prefetch
system.cpu.itb.stage2_mmu.stage2_tlb.read_accesses            0                       # DTB read accesses
system.cpu.itb.stage2_mmu.stage2_tlb.read_hits            0                       # DTB read hits
system.cpu.itb.stage2_mmu.stage2_tlb.read_misses            0                       # DTB read misses
system.cpu.itb.stage2_mmu.stage2_tlb.walker.walkRequestOrigin_Requested::Data            0                       # Table walker requests started/completed, data/inst
system.cpu.itb.stage2_mmu.stage2_tlb.walker.walkRequestOrigin_Requested::Inst            0                       # Table walker requests started/completed, data/inst
system.cpu.itb.stage2_mmu.stage2_tlb.walker.walkRequestOrigin_Requested::total            0                       # Table walker requests started/completed, data/inst
system.cpu.itb.stage2_mmu.stage2_tlb.walker.walkRequestOrigin_Completed::Data            0                       # Table walker requests started/completed, data/inst
system.cpu.itb.stage2_mmu.stage2_tlb.walker.walkRequestOrigin_Completed::Inst            0                       # Table walker requests started/completed, data/inst
system.cpu.itb.stage2_mmu.stage2_tlb.walker.walkRequestOrigin_Completed::total            0                       # Table walker requests started/completed, data/inst
system.cpu.itb.stage2_mmu.stage2_tlb.walker.walkRequestOrigin::total            0                       # Table walker requests started/completed, data/inst
system.cpu.itb.stage2_mmu.stage2_tlb.walker.walks            0                       # Table walker walks requested
system.cpu.itb.stage2_mmu.stage2_tlb.write_accesses            0                       # DTB write accesses
system.cpu.itb.stage2_mmu.stage2_tlb.write_hits            0                       # DTB write hits
system.cpu.itb.stage2_mmu.stage2_tlb.write_misses            0                       # DTB write misses
system.cpu.itb.walker.walkRequestOrigin_Requested::Data            0                       # Table walker requests started/completed, data/inst
system.cpu.itb.walker.walkRequestOrigin_Requested::Inst            0                       # Table walker requests started/completed, data/inst
system.cpu.itb.walker.walkRequestOrigin_Requested::total            0                       # Table walker requests started/completed, data/inst
system.cpu.itb.walker.walkRequestOrigin_Completed::Data            0                       # Table walker requests started/completed, data/inst
system.cpu.itb.walker.walkRequestOrigin_Completed::Inst            0                       # Table walker requests started/completed, data/inst
system.cpu.itb.walker.walkRequestOrigin_Completed::total            0                       # Table walker requests started/completed, data/inst
system.cpu.itb.walker.walkRequestOrigin::total            0                       # Table walker requests started/completed, data/inst
system.cpu.itb.walker.walks                         0                       # Table walker walks requested
system.cpu.itb.write_accesses                       0                       # DTB write accesses
system.cpu.itb.write_hits                           0                       # DTB write hits
system.cpu.itb.write_misses                         0                       # DTB write misses
system.cpu.memDep0.conflictingLoads            906845                       # Number of conflicting loads.
system.cpu.memDep0.conflictingStores             2819                       # Number of conflicting stores.
system.cpu.memDep0.insertedLoads              8863518                       # Number of loads inserted to the mem dependence unit.
system.cpu.memDep0.insertedStores             5328572                       # Number of stores inserted to the mem dependence unit.
system.cpu.misc_regfile_reads                13997616                       # number of misc regfile reads
system.cpu.misc_regfile_writes                    206                       # number of misc regfile writes
system.cpu.numCycles                         39238956                       # number of cpu cycles simulated
system.cpu.numWorkItemsCompleted                    0                       # number of work items this cpu completed
system.cpu.numWorkItemsStarted                      0                       # number of work items this cpu started
system.cpu.rename.BlockCycles                  333042                       # Number of cycles rename is blocking
system.cpu.rename.CommittedMaps              94284884                       # Number of HB maps that are committed
system.cpu.rename.IQFullEvents                 103922                       # Number of times rename has blocked due to IQ full
system.cpu.rename.IdleCycles                  3063108                       # Number of cycles rename is idle
system.cpu.rename.LQFullEvents                      7                       # Number of times rename has blocked due to LQ full
system.cpu.rename.ROBFullEvents                785986                       # Number of times rename has blocked due to ROB full
system.cpu.rename.RenameLookups             359991596                       # Number of register rename lookups that rename has made
system.cpu.rename.RenamedInsts               79355529                       # Number of instructions processed by rename
system.cpu.rename.RenamedOperands            97039514                       # Number of destination operands rename has renamed
system.cpu.rename.RunCycles                  33915949                       # Number of cycles rename is running
system.cpu.rename.SQFullEvents                   1864                       # Number of times rename has blocked due to SQ full
system.cpu.rename.SquashCycles                  94858                       # Number of cycles rename is squashing
system.cpu.rename.SquashedInsts                202666                       # Number of squashed instructions processed by rename
system.cpu.rename.UnblockCycles               1788216                       # Number of cycles rename is unblocking
system.cpu.rename.UndoneMaps                  2754629                       # Number of HB maps that are undone due to squashing
system.cpu.rename.int_rename_lookups        103183911                       # Number of integer rename lookups
system.cpu.rename.serializeStallCycles           2299                       # count of cycles rename stalled for serializing inst
system.cpu.rename.serializingInsts                 72                       # count of serializing insts renamed
system.cpu.rename.skidInsts                   3126002                       # count of insts added to the skid buffer
system.cpu.rename.tempSerializingInsts             68                       # count of temporary serializing insts renamed
system.cpu.rename.vec_rename_lookups               39                       # Number of vector rename lookups
system.cpu.rob.rob_reads                    116200639                       # The number of ROB reads
system.cpu.rob.rob_writes                   158210369                       # The number of ROB writes
system.cpu.timesIdled                             638                       # Number of times that the entire CPU went into an idle state and unscheduled itself
system.cpu.vec_regfile_reads                       32                       # number of vector regfile reads
system.cpu.workload.numSyscalls                    13                       # Number of system calls
system.membus.snoop_filter.hit_multi_requests           31                       # Number of requests hitting in the snoop filter with multiple (>1) holders of the requested data.
system.membus.snoop_filter.hit_multi_snoops            0                       # Number of snoops hitting in the snoop filter with multiple (>1) holders of the requested data.
system.membus.snoop_filter.hit_single_requests          337                       # Number of requests hitting in the snoop filter with a single holder of the requested data.
system.membus.snoop_filter.hit_single_snoops            0                       # Number of snoops hitting in the snoop filter with a single holder of the requested data.
system.membus.snoop_filter.tot_requests          1454                       # Total number of requests made to the snoop filter.
system.membus.snoop_filter.tot_snoops               0                       # Total number of snoops made to the snoop filter.
system.membus.pwrStateResidencyTicks::UNDEFINED  24524346875                       # Cumulative time (in ticks) in various power states
system.membus.trans_dist::ReadResp               1008                       # Transaction distribution
system.membus.trans_dist::WritebackDirty            2                       # Transaction distribution
system.membus.trans_dist::WritebackClean          313                       # Transaction distribution
system.membus.trans_dist::ReadExReq               131                       # Transaction distribution
system.membus.trans_dist::ReadExResp              131                       # Transaction distribution
system.membus.trans_dist::ReadCleanReq            814                       # Transaction distribution
system.membus.trans_dist::ReadSharedReq           194                       # Transaction distribution
system.membus.pkt_count_system.cpu.icache.mem_side::system.mem_ctrls.port         1936                       # Packet count per connected master and slave (bytes)
system.membus.pkt_count_system.cpu.dcache.mem_side::system.mem_ctrls.port          657                       # Packet count per connected master and slave (bytes)
system.membus.pkt_count::total                   2593                       # Packet count per connected master and slave (bytes)
system.membus.pkt_size_system.cpu.icache.mem_side::system.mem_ctrls.port        71808                       # Cumulative packet size per connected master and slave (bytes)
system.membus.pkt_size_system.cpu.dcache.mem_side::system.mem_ctrls.port        21248                       # Cumulative packet size per connected master and slave (bytes)
system.membus.pkt_size::total                   93056                       # Cumulative packet size per connected master and slave (bytes)
system.membus.snoops                                0                       # Total snoops (count)
system.membus.snoopTraffic                          0                       # Total snoop traffic (bytes)
system.membus.snoop_fanout::samples              1139                       # Request fanout histogram
system.membus.snoop_fanout::mean             0.046532                       # Request fanout histogram
system.membus.snoop_fanout::stdev            0.210727                       # Request fanout histogram
system.membus.snoop_fanout::underflows              0      0.00%      0.00% # Request fanout histogram
system.membus.snoop_fanout::0                    1086     95.35%     95.35% # Request fanout histogram
system.membus.snoop_fanout::1                      53      4.65%    100.00% # Request fanout histogram
system.membus.snoop_fanout::2                       0      0.00%    100.00% # Request fanout histogram
system.membus.snoop_fanout::3                       0      0.00%    100.00% # Request fanout histogram
system.membus.snoop_fanout::4                       0      0.00%    100.00% # Request fanout histogram
system.membus.snoop_fanout::overflows               0      0.00%    100.00% # Request fanout histogram
system.membus.snoop_fanout::min_value               0                       # Request fanout histogram
system.membus.snoop_fanout::max_value               1                       # Request fanout histogram
system.membus.snoop_fanout::total                1139                       # Request fanout histogram
system.membus.reqLayer0.occupancy             3255750                       # Layer occupancy (ticks)
system.membus.reqLayer0.utilization               0.0                       # Layer utilization (%)
system.membus.respLayer1.occupancy            4319250                       # Layer occupancy (ticks)
system.membus.respLayer1.utilization              0.0                       # Layer utilization (%)
system.membus.respLayer2.occupancy            1781375                       # Layer occupancy (ticks)
system.membus.respLayer2.utilization              0.0                       # Layer utilization (%)
system.voltage_domain.voltage                       1                       # Voltage in Volts
system.clk_domain.clock                          1000                       # Clock period in ticks
system.cpu_voltage_domain.voltage                   1                       # Voltage in Volts
system.mem_ctrls.pwrStateResidencyTicks::UNDEFINED  24524346875                       # Cumulative time (in ticks) in various power states
system.mem_ctrls.bytes_read::.cpu.inst          52096                       # Number of bytes read from this memory
system.mem_ctrls.bytes_read::.cpu.data          20800                       # Number of bytes read from this memory
system.mem_ctrls.bytes_read::total              72896                       # Number of bytes read from this memory
system.mem_ctrls.bytes_inst_read::.cpu.inst        52096                       # Number of instructions bytes read from this memory
system.mem_ctrls.bytes_inst_read::total         52096                       # Number of instructions bytes read from this memory
system.mem_ctrls.bytes_written::.writebacks          128                       # Number of bytes written to this memory
system.mem_ctrls.bytes_written::total             128                       # Number of bytes written to this memory
system.mem_ctrls.num_reads::.cpu.inst             814                       # Number of read requests responded to by this memory
system.mem_ctrls.num_reads::.cpu.data             325                       # Number of read requests responded to by this memory
system.mem_ctrls.num_reads::total                1139                       # Number of read requests responded to by this memory
system.mem_ctrls.num_writes::.writebacks            2                       # Number of write requests responded to by this memory
system.mem_ctrls.num_writes::total                  2                       # Number of write requests responded to by this memory
system.mem_ctrls.bw_read::.cpu.inst           2124256                       # Total read bandwidth from this memory (bytes/s)
system.mem_ctrls.bw_read::.cpu.data            848137                       # Total read bandwidth from this memory (bytes/s)
system.mem_ctrls.bw_read::total               2972393                       # Total read bandwidth from this memory (bytes/s)
system.mem_ctrls.bw_inst_read::.cpu.inst      2124256                       # Instruction read bandwidth from this memory (bytes/s)
system.mem_ctrls.bw_inst_read::total          2124256                       # Instruction read bandwidth from this memory (bytes/s)
system.mem_ctrls.bw_write::.writebacks           5219                       # Write bandwidth from this memory (bytes/s)
system.mem_ctrls.bw_write::total                 5219                       # Write bandwidth from this memory (bytes/s)
system.mem_ctrls.bw_total::.writebacks           5219                       # Total bandwidth to/from this memory (bytes/s)
system.mem_ctrls.bw_total::.cpu.inst          2124256                       # Total bandwidth to/from this memory (bytes/s)
system.mem_ctrls.bw_total::.cpu.data           848137                       # Total bandwidth to/from this memory (bytes/s)
system.mem_ctrls.bw_total::total              2977612                       # Total bandwidth to/from this memory (bytes/s)
system.mem_ctrls.avgPriority_.writebacks::samples       279.00                       # Average QoS priority value for accepted requests
system.mem_ctrls.avgPriority_.cpu.inst::samples       804.00                       # Average QoS priority value for accepted requests
system.mem_ctrls.avgPriority_.cpu.data::samples       325.00                       # Average QoS priority value for accepted requests
system.mem_ctrls.priorityMinLatency      0.000000018750                       # per QoS priority minimum request to response latency (s)
system.mem_ctrls.priorityMaxLatency      0.048949027500                       # per QoS priority maximum request to response latency (s)
system.mem_ctrls.numReadWriteTurnArounds           16                       # Number of turnarounds from READ to WRITE
system.mem_ctrls.numWriteReadTurnArounds           16                       # Number of turnarounds from WRITE to READ
system.mem_ctrls.numStayReadState                8792                       # Number of times bus staying in READ state
system.mem_ctrls.numStayWriteState                244                       # Number of times bus staying in WRITE state
system.mem_ctrls.readReqs                        1139                       # Number of read requests accepted
system.mem_ctrls.writeReqs                        284                       # Number of write requests accepted
system.mem_ctrls.readBursts                      1139                       # Number of DRAM read bursts, including those serviced by the write queue
system.mem_ctrls.writeBursts                      284                       # Number of DRAM write bursts, including those merged in the write queue
system.mem_ctrls.servicedByWrQ                     10                       # Number of DRAM read bursts serviced by the write queue
system.mem_ctrls.mergedWrBursts                     5                       # Number of DRAM write bursts merged with an existing one
system.mem_ctrls.neitherReadNorWriteReqs            0                       # Number of requests that are neither read nor write
system.mem_ctrls.perBankRdBursts::0                98                       # Per bank write bursts
system.mem_ctrls.perBankRdBursts::1                68                       # Per bank write bursts
system.mem_ctrls.perBankRdBursts::2                85                       # Per bank write bursts
system.mem_ctrls.perBankRdBursts::3               146                       # Per bank write bursts
system.mem_ctrls.perBankRdBursts::4               115                       # Per bank write bursts
system.mem_ctrls.perBankRdBursts::5                71                       # Per bank write bursts
system.mem_ctrls.perBankRdBursts::6                82                       # Per bank write bursts
system.mem_ctrls.perBankRdBursts::7                81                       # Per bank write bursts
system.mem_ctrls.perBankRdBursts::8               168                       # Per bank write bursts
system.mem_ctrls.perBankRdBursts::9                42                       # Per bank write bursts
system.mem_ctrls.perBankRdBursts::10               42                       # Per bank write bursts
system.mem_ctrls.perBankRdBursts::11               36                       # Per bank write bursts
system.mem_ctrls.perBankRdBursts::12               68                       # Per bank write bursts
system.mem_ctrls.perBankRdBursts::13                0                       # Per bank write bursts
system.mem_ctrls.perBankRdBursts::14                9                       # Per bank write bursts
system.mem_ctrls.perBankRdBursts::15               18                       # Per bank write bursts
system.mem_ctrls.perBankWrBursts::0                21                       # Per bank write bursts
system.mem_ctrls.perBankWrBursts::1                10                       # Per bank write bursts
system.mem_ctrls.perBankWrBursts::2                31                       # Per bank write bursts
system.mem_ctrls.perBankWrBursts::3                26                       # Per bank write bursts
system.mem_ctrls.perBankWrBursts::4                33                       # Per bank write bursts
system.mem_ctrls.perBankWrBursts::5                 6                       # Per bank write bursts
system.mem_ctrls.perBankWrBursts::6                 4                       # Per bank write bursts
system.mem_ctrls.perBankWrBursts::7                16                       # Per bank write bursts
system.mem_ctrls.perBankWrBursts::8                39                       # Per bank write bursts
system.mem_ctrls.perBankWrBursts::9                 7                       # Per bank write bursts
system.mem_ctrls.perBankWrBursts::10                6                       # Per bank write bursts
system.mem_ctrls.perBankWrBursts::11               12                       # Per bank write bursts
system.mem_ctrls.perBankWrBursts::12               32                       # Per bank write bursts
system.mem_ctrls.perBankWrBursts::13                0                       # Per bank write bursts
system.mem_ctrls.perBankWrBursts::14                6                       # Per bank write bursts
system.mem_ctrls.perBankWrBursts::15               11                       # Per bank write bursts
system.mem_ctrls.avgRdQLen                       1.00                       # Average read queue length when enqueuing
system.mem_ctrls.avgWrQLen                      25.98                       # Average write queue length when enqueuing
system.mem_ctrls.totQLat                     12059375                       # Total ticks spent queuing
system.mem_ctrls.totBusLat                    5645000                       # Total ticks spent in databus transfers
system.mem_ctrls.totMemAccLat                33228125                       # Total ticks spent from burst creation until serviced by the DRAM
system.mem_ctrls.avgQLat                     10681.47                       # Average queueing delay per DRAM burst
system.mem_ctrls.avgBusLat                    5000.00                       # Average bus latency per DRAM burst
system.mem_ctrls.avgMemAccLat                29431.47                       # Average memory access latency per DRAM burst
system.mem_ctrls.numRdRetry                         0                       # Number of times read queue was full causing retry
system.mem_ctrls.numWrRetry                         0                       # Number of times write queue was full causing retry
system.mem_ctrls.readRowHits                      846                       # Number of row buffer hits during reads
system.mem_ctrls.writeRowHits                     204                       # Number of row buffer hits during writes
system.mem_ctrls.readRowHitRate                 74.93                       # Row buffer hit rate for reads
system.mem_ctrls.writeRowHitRate                73.12                       # Row buffer hit rate for writes
system.mem_ctrls.readPktSize::0                     0                       # Read request sizes (log2)
system.mem_ctrls.readPktSize::1                     0                       # Read request sizes (log2)
system.mem_ctrls.readPktSize::2                     0                       # Read request sizes (log2)
system.mem_ctrls.readPktSize::3                     0                       # Read request sizes (log2)
system.mem_ctrls.readPktSize::4                     0                       # Read request sizes (log2)
system.mem_ctrls.readPktSize::5                     0                       # Read request sizes (log2)
system.mem_ctrls.readPktSize::6                  1139                       # Read request sizes (log2)
system.mem_ctrls.writePktSize::0                    0                       # Write request sizes (log2)
system.mem_ctrls.writePktSize::1                    0                       # Write request sizes (log2)
system.mem_ctrls.writePktSize::2                    0                       # Write request sizes (log2)
system.mem_ctrls.writePktSize::3                    0                       # Write request sizes (log2)
system.mem_ctrls.writePktSize::4                    0                       # Write request sizes (log2)
system.mem_ctrls.writePktSize::5                    0                       # Write request sizes (log2)
system.mem_ctrls.writePktSize::6                  284                       # Write request sizes (log2)
system.mem_ctrls.rdQLenPdf::0                     775                       # What read queue length does an incoming req see
system.mem_ctrls.rdQLenPdf::1                     282                       # What read queue length does an incoming req see
system.mem_ctrls.rdQLenPdf::2                      56                       # What read queue length does an incoming req see
system.mem_ctrls.rdQLenPdf::3                      12                       # What read queue length does an incoming req see
system.mem_ctrls.rdQLenPdf::4                       3                       # What read queue length does an incoming req see
system.mem_ctrls.rdQLenPdf::5                       1                       # What read queue length does an incoming req see
system.mem_ctrls.rdQLenPdf::6                       0                       # What read queue length does an incoming req see
system.mem_ctrls.rdQLenPdf::7                       0                       # What read queue length does an incoming req see
system.mem_ctrls.rdQLenPdf::8                       0                       # What read queue length does an incoming req see
system.mem_ctrls.rdQLenPdf::9                       0                       # What read queue length does an incoming req see
system.mem_ctrls.rdQLenPdf::10                      0                       # What read queue length does an incoming req see
system.mem_ctrls.rdQLenPdf::11                      0                       # What read queue length does an incoming req see
system.mem_ctrls.rdQLenPdf::12                      0                       # What read queue length does an incoming req see
system.mem_ctrls.rdQLenPdf::13                      0                       # What read queue length does an incoming req see
system.mem_ctrls.rdQLenPdf::14                      0                       # What read queue length does an incoming req see
system.mem_ctrls.rdQLenPdf::15                      0                       # What read queue length does an incoming req see
system.mem_ctrls.rdQLenPdf::16                      0                       # What read queue length does an incoming req see
system.mem_ctrls.rdQLenPdf::17                      0                       # What read queue length does an incoming req see
system.mem_ctrls.rdQLenPdf::18                      0                       # What read queue length does an incoming req see
system.mem_ctrls.rdQLenPdf::19                      0                       # What read queue length does an incoming req see
system.mem_ctrls.rdQLenPdf::20                      0                       # What read queue length does an incoming req see
system.mem_ctrls.rdQLenPdf::21                      0                       # What read queue length does an incoming req see
system.mem_ctrls.rdQLenPdf::22                      0                       # What read queue length does an incoming req see
system.mem_ctrls.rdQLenPdf::23                      0                       # What read queue length does an incoming req see
system.mem_ctrls.rdQLenPdf::24                      0                       # What read queue length does an incoming req see
system.mem_ctrls.rdQLenPdf::25                      0                       # What read queue length does an incoming req see
system.mem_ctrls.rdQLenPdf::26                      0                       # What read queue length does an incoming req see
system.mem_ctrls.rdQLenPdf::27                      0                       # What read queue length does an incoming req see
system.mem_ctrls.rdQLenPdf::28                      0                       # What read queue length does an incoming req see
system.mem_ctrls.rdQLenPdf::29                      0                       # What read queue length does an incoming req see
system.mem_ctrls.rdQLenPdf::30                      0                       # What read queue length does an incoming req see
system.mem_ctrls.rdQLenPdf::31                      0                       # What read queue length does an incoming req see
system.mem_ctrls.wrQLenPdf::0                       1                       # What write queue length does an incoming req see
system.mem_ctrls.wrQLenPdf::1                       1                       # What write queue length does an incoming req see
system.mem_ctrls.wrQLenPdf::2                       1                       # What write queue length does an incoming req see
system.mem_ctrls.wrQLenPdf::3                       1                       # What write queue length does an incoming req see
system.mem_ctrls.wrQLenPdf::4                       1                       # What write queue length does an incoming req see
system.mem_ctrls.wrQLenPdf::5                       1                       # What write queue length does an incoming req see
system.mem_ctrls.wrQLenPdf::6                       1                       # What write queue length does an incoming req see
system.mem_ctrls.wrQLenPdf::7                       1                       # What write queue length does an incoming req see
system.mem_ctrls.wrQLenPdf::8                       1                       # What write queue length does an incoming req see
system.mem_ctrls.wrQLenPdf::9                       1                       # What write queue length does an incoming req see
system.mem_ctrls.wrQLenPdf::10                      1                       # What write queue length does an incoming req see
system.mem_ctrls.wrQLenPdf::11                      1                       # What write queue length does an incoming req see
system.mem_ctrls.wrQLenPdf::12                      1                       # What write queue length does an incoming req see
system.mem_ctrls.wrQLenPdf::13                      1                       # What write queue length does an incoming req see
system.mem_ctrls.wrQLenPdf::14                      1                       # What write queue length does an incoming req see
[...]
system.cpu.itb_walker_cache.blocked_cycles::no_mshrs            0                       # number of cycles access was blocked
system.cpu.itb_walker_cache.blocked_cycles::no_targets            0                       # number of cycles access was blocked
system.cpu.itb_walker_cache.blocked::no_mshrs            0                       # number of cycles access was blocked
system.cpu.itb_walker_cache.blocked::no_targets            0                       # number of cycles access was blocked
system.cpu.itb_walker_cache.avg_blocked_cycles::no_mshrs          nan                       # average number of cycles each access was blocked
system.cpu.itb_walker_cache.avg_blocked_cycles::no_targets          nan                       # average number of cycles each access was blocked
system.cpu.itb_walker_cache.replacements            0                       # number of replacements
system.cpu.itb_walker_cache.tags.pwrStateResidencyTicks::UNDEFINED  24524346875                       # Cumulative time (in ticks) in various power states
system.cpu.itb_walker_cache.tags.tagsinuse            0                       # Cycle average of tags in use
system.cpu.itb_walker_cache.tags.total_refs            0                       # Total number of references to valid blocks.
system.cpu.itb_walker_cache.tags.sampled_refs            0                       # Sample count of references to valid blocks.
system.cpu.itb_walker_cache.tags.avg_refs          nan                       # Average number of references to valid blocks.
system.cpu.itb_walker_cache.tags.warmup_cycle            0                       # Cycle when the warmup percentage was hit.
system.cpu.itb_walker_cache.tags.tag_accesses            0                       # Number of tag accesses
system.cpu.itb_walker_cache.tags.data_accesses            0                       # Number of data accesses
system.cpu.itb.walker.pwrStateResidencyTicks::UNDEFINED  24524346875                       # Cumulative time (in ticks) in various power states
system.cpu.itb.stage2_mmu.stage2_tlb.walker.pwrStateResidencyTicks::UNDEFINED  24524346875                       # Cumulative time (in ticks) in various power states
system.cpu.dtb_walker_cache.pwrStateResidencyTicks::UNDEFINED  24524346875                       # Cumulative time (in ticks) in various power states
system.cpu.dtb_walker_cache.blocked_cycles::no_mshrs            0                       # number of cycles access was blocked
system.cpu.dtb_walker_cache.blocked_cycles::no_targets            0                       # number of cycles access was blocked
system.cpu.dtb_walker_cache.blocked::no_mshrs            0                       # number of cycles access was blocked
system.cpu.dtb_walker_cache.blocked::no_targets            0                       # number of cycles access was blocked
system.cpu.dtb_walker_cache.avg_blocked_cycles::no_mshrs          nan                       # average number of cycles each access was blocked
system.cpu.dtb_walker_cache.avg_blocked_cycles::no_targets          nan                       # average number of cycles each access was blocked
system.cpu.dtb_walker_cache.replacements            0                       # number of replacements
system.cpu.dtb_walker_cache.tags.pwrStateResidencyTicks::UNDEFINED  24524346875                       # Cumulative time (in ticks) in various power states
system.cpu.dtb_walker_cache.tags.tagsinuse            0                       # Cycle average of tags in use
system.cpu.dtb_walker_cache.tags.total_refs            0                       # Total number of references to valid blocks.
system.cpu.dtb_walker_cache.tags.sampled_refs            0                       # Sample count of references to valid blocks.
system.cpu.dtb_walker_cache.tags.avg_refs          nan                       # Average number of references to valid blocks.
system.cpu.dtb_walker_cache.tags.warmup_cycle            0                       # Cycle when the warmup percentage was hit.
system.cpu.dtb_walker_cache.tags.tag_accesses            0                       # Number of tag accesses
system.cpu.dtb_walker_cache.tags.data_accesses            0                       # Number of data accesses
system.cpu.dcache.pwrStateResidencyTicks::UNDEFINED  24524346875                       # Cumulative time (in ticks) in various power states
system.cpu.dcache.demand_hits::.cpu.data     12719065                       # number of demand (read+write) hits
system.cpu.dcache.demand_hits::total         12719065                       # number of demand (read+write) hits
system.cpu.dcache.overall_hits::.cpu.data     12719065                       # number of overall hits
system.cpu.dcache.overall_hits::total        12719065                       # number of overall hits
system.cpu.dcache.demand_misses::.cpu.data         1104                       # number of demand (read+write) misses
system.cpu.dcache.demand_misses::total           1104                       # number of demand (read+write) misses
system.cpu.dcache.overall_misses::.cpu.data         1104                       # number of overall misses
system.cpu.dcache.overall_misses::total          1104                       # number of overall misses
system.cpu.dcache.demand_miss_latency::.cpu.data     75177250                       # number of demand (read+write) miss cycles
system.cpu.dcache.demand_miss_latency::total     75177250                       # number of demand (read+write) miss cycles
system.cpu.dcache.overall_miss_latency::.cpu.data     75177250                       # number of overall miss cycles
system.cpu.dcache.overall_miss_latency::total     75177250                       # number of overall miss cycles
system.cpu.dcache.demand_accesses::.cpu.data     12720169                       # number of demand (read+write) accesses
system.cpu.dcache.demand_accesses::total     12720169                       # number of demand (read+write) accesses
system.cpu.dcache.overall_accesses::.cpu.data     12720169                       # number of overall (read+write) accesses
system.cpu.dcache.overall_accesses::total     12720169                       # number of overall (read+write) accesses
system.cpu.dcache.demand_miss_rate::.cpu.data     0.000087                       # miss rate for demand accesses
system.cpu.dcache.demand_miss_rate::total     0.000087                       # miss rate for demand accesses
system.cpu.dcache.overall_miss_rate::.cpu.data     0.000087                       # miss rate for overall accesses
system.cpu.dcache.overall_miss_rate::total     0.000087                       # miss rate for overall accesses
system.cpu.dcache.demand_avg_miss_latency::.cpu.data 68095.335145                       # average overall miss latency
system.cpu.dcache.demand_avg_miss_latency::total 68095.335145                       # average overall miss latency
system.cpu.dcache.overall_avg_miss_latency::.cpu.data 68095.335145                       # average overall miss latency
system.cpu.dcache.overall_avg_miss_latency::total 68095.335145                       # average overall miss latency
system.cpu.dcache.blocked_cycles::no_mshrs            0                       # number of cycles access was blocked
system.cpu.dcache.blocked_cycles::no_targets         5034                       # number of cycles access was blocked
system.cpu.dcache.blocked::no_mshrs                 0                       # number of cycles access was blocked
system.cpu.dcache.blocked::no_targets              55                       # number of cycles access was blocked
system.cpu.dcache.avg_blocked_cycles::no_mshrs          nan                       # average number of cycles each access was blocked
system.cpu.dcache.avg_blocked_cycles::no_targets    91.527273                       # average number of cycles each access was blocked
system.cpu.dcache.writebacks::.writebacks            7                       # number of writebacks
system.cpu.dcache.writebacks::total                 7                       # number of writebacks
system.cpu.dcache.demand_mshr_hits::.cpu.data          779                       # number of demand (read+write) MSHR hits
system.cpu.dcache.demand_mshr_hits::total          779                       # number of demand (read+write) MSHR hits
system.cpu.dcache.overall_mshr_hits::.cpu.data          779                       # number of overall MSHR hits
system.cpu.dcache.overall_mshr_hits::total          779                       # number of overall MSHR hits
system.cpu.dcache.demand_mshr_misses::.cpu.data          325                       # number of demand (read+write) MSHR misses
system.cpu.dcache.demand_mshr_misses::total          325                       # number of demand (read+write) MSHR misses
system.cpu.dcache.overall_mshr_misses::.cpu.data          325                       # number of overall MSHR misses
system.cpu.dcache.overall_mshr_misses::total          325                       # number of overall MSHR misses
system.cpu.dcache.demand_mshr_miss_latency::.cpu.data     21499250                       # number of demand (read+write) MSHR miss cycles
system.cpu.dcache.demand_mshr_miss_latency::total     21499250                       # number of demand (read+write) MSHR miss cycles
system.cpu.dcache.overall_mshr_miss_latency::.cpu.data     21499250                       # number of overall MSHR miss cycles
system.cpu.dcache.overall_mshr_miss_latency::total     21499250                       # number of overall MSHR miss cycles
system.cpu.dcache.demand_mshr_miss_rate::.cpu.data     0.000026                       # mshr miss rate for demand accesses
system.cpu.dcache.demand_mshr_miss_rate::total     0.000026                       # mshr miss rate for demand accesses
system.cpu.dcache.overall_mshr_miss_rate::.cpu.data     0.000026                       # mshr miss rate for overall accesses
system.cpu.dcache.overall_mshr_miss_rate::total     0.000026                       # mshr miss rate for overall accesses
system.cpu.dcache.demand_avg_mshr_miss_latency::.cpu.data 66151.538462                       # average overall mshr miss latency
system.cpu.dcache.demand_avg_mshr_miss_latency::total 66151.538462                       # average overall mshr miss latency
system.cpu.dcache.overall_avg_mshr_miss_latency::.cpu.data 66151.538462                       # average overall mshr miss latency
system.cpu.dcache.overall_avg_mshr_miss_latency::total 66151.538462                       # average overall mshr miss latency
system.cpu.dcache.replacements                      7                       # number of replacements
system.cpu.dcache.ReadReq_hits::.cpu.data      7860006                       # number of ReadReq hits
system.cpu.dcache.ReadReq_hits::total         7860006                       # number of ReadReq hits
system.cpu.dcache.ReadReq_misses::.cpu.data          489                       # number of ReadReq misses
system.cpu.dcache.ReadReq_misses::total           489                       # number of ReadReq misses
system.cpu.dcache.ReadReq_miss_latency::.cpu.data     34816875                       # number of ReadReq miss cycles
system.cpu.dcache.ReadReq_miss_latency::total     34816875                       # number of ReadReq miss cycles
system.cpu.dcache.ReadReq_accesses::.cpu.data      7860495                       # number of ReadReq accesses(hits+misses)
system.cpu.dcache.ReadReq_accesses::total      7860495                       # number of ReadReq accesses(hits+misses)
system.cpu.dcache.ReadReq_miss_rate::.cpu.data     0.000062                       # miss rate for ReadReq accesses
system.cpu.dcache.ReadReq_miss_rate::total     0.000062                       # miss rate for ReadReq accesses
system.cpu.dcache.ReadReq_avg_miss_latency::.cpu.data 71200.153374                       # average ReadReq miss latency
system.cpu.dcache.ReadReq_avg_miss_latency::total 71200.153374                       # average ReadReq miss latency
system.cpu.dcache.ReadReq_mshr_hits::.cpu.data          295                       # number of ReadReq MSHR hits
system.cpu.dcache.ReadReq_mshr_hits::total          295                       # number of ReadReq MSHR hits
system.cpu.dcache.ReadReq_mshr_misses::.cpu.data          194                       # number of ReadReq MSHR misses
system.cpu.dcache.ReadReq_mshr_misses::total          194                       # number of ReadReq MSHR misses
system.cpu.dcache.ReadReq_mshr_miss_latency::.cpu.data     12859750                       # number of ReadReq MSHR miss cycles
system.cpu.dcache.ReadReq_mshr_miss_latency::total     12859750                       # number of ReadReq MSHR miss cycles
system.cpu.dcache.ReadReq_mshr_miss_rate::.cpu.data     0.000025                       # mshr miss rate for ReadReq accesses
system.cpu.dcache.ReadReq_mshr_miss_rate::total     0.000025                       # mshr miss rate for ReadReq accesses
system.cpu.dcache.ReadReq_avg_mshr_miss_latency::.cpu.data 66287.371134                       # average ReadReq mshr miss latency
system.cpu.dcache.ReadReq_avg_mshr_miss_latency::total 66287.371134                       # average ReadReq mshr miss latency
system.cpu.dcache.WriteReq_hits::.cpu.data      4859059                       # number of WriteReq hits
system.cpu.dcache.WriteReq_hits::total        4859059                       # number of WriteReq hits
system.cpu.dcache.WriteReq_misses::.cpu.data          615                       # number of WriteReq misses
system.cpu.dcache.WriteReq_misses::total          615                       # number of WriteReq misses
system.cpu.dcache.WriteReq_miss_latency::.cpu.data     40360375                       # number of WriteReq miss cycles
system.cpu.dcache.WriteReq_miss_latency::total     40360375                       # number of WriteReq miss cycles
system.cpu.dcache.WriteReq_accesses::.cpu.data      4859674                       # number of WriteReq accesses(hits+misses)
system.cpu.dcache.WriteReq_accesses::total      4859674                       # number of WriteReq accesses(hits+misses)
system.cpu.dcache.WriteReq_miss_rate::.cpu.data     0.000127                       # miss rate for WriteReq accesses
system.cpu.dcache.WriteReq_miss_rate::total     0.000127                       # miss rate for WriteReq accesses
system.cpu.dcache.WriteReq_avg_miss_latency::.cpu.data 65626.626016                       # average WriteReq miss latency
system.cpu.dcache.WriteReq_avg_miss_latency::total 65626.626016                       # average WriteReq miss latency
system.cpu.dcache.WriteReq_mshr_hits::.cpu.data          484                       # number of WriteReq MSHR hits
system.cpu.dcache.WriteReq_mshr_hits::total          484                       # number of WriteReq MSHR hits
system.cpu.dcache.WriteReq_mshr_misses::.cpu.data          131                       # number of WriteReq MSHR misses
system.cpu.dcache.WriteReq_mshr_misses::total          131                       # number of WriteReq MSHR misses
system.cpu.dcache.WriteReq_mshr_miss_latency::.cpu.data      8639500                       # number of WriteReq MSHR miss cycles
system.cpu.dcache.WriteReq_mshr_miss_latency::total      8639500                       # number of WriteReq MSHR miss cycles
system.cpu.dcache.WriteReq_mshr_miss_rate::.cpu.data     0.000027                       # mshr miss rate for WriteReq accesses
system.cpu.dcache.WriteReq_mshr_miss_rate::total     0.000027                       # mshr miss rate for WriteReq accesses
system.cpu.dcache.WriteReq_avg_mshr_miss_latency::.cpu.data 65950.381679                       # average WriteReq mshr miss latency
system.cpu.dcache.WriteReq_avg_mshr_miss_latency::total 65950.381679                       # average WriteReq mshr miss latency
system.cpu.dcache.LoadLockedReq_hits::.cpu.data           49                       # number of LoadLockedReq hits
system.cpu.dcache.LoadLockedReq_hits::total           49                       # number of LoadLockedReq hits
system.cpu.dcache.LoadLockedReq_misses::.cpu.data            2                       # number of LoadLockedReq misses
system.cpu.dcache.LoadLockedReq_misses::total            2                       # number of LoadLockedReq misses
system.cpu.dcache.LoadLockedReq_miss_latency::.cpu.data        98750                       # number of LoadLockedReq miss cycles
system.cpu.dcache.LoadLockedReq_miss_latency::total        98750                       # number of LoadLockedReq miss cycles
system.cpu.dcache.LoadLockedReq_accesses::.cpu.data           51                       # number of LoadLockedReq accesses(hits+misses)
system.cpu.dcache.LoadLockedReq_accesses::total           51                       # number of LoadLockedReq accesses(hits+misses)
system.cpu.dcache.LoadLockedReq_miss_rate::.cpu.data     0.039216                       # miss rate for LoadLockedReq accesses
system.cpu.dcache.LoadLockedReq_miss_rate::total     0.039216                       # miss rate for LoadLockedReq accesses
system.cpu.dcache.LoadLockedReq_avg_miss_latency::.cpu.data        49375                       # average LoadLockedReq miss latency
system.cpu.dcache.LoadLockedReq_avg_miss_latency::total        49375                       # average LoadLockedReq miss latency
system.cpu.dcache.LoadLockedReq_mshr_hits::.cpu.data            2                       # number of LoadLockedReq MSHR hits
system.cpu.dcache.LoadLockedReq_mshr_hits::total            2                       # number of LoadLockedReq MSHR hits
system.cpu.dcache.StoreCondReq_hits::.cpu.data           51                       # number of StoreCondReq hits
system.cpu.dcache.StoreCondReq_hits::total           51                       # number of StoreCondReq hits
system.cpu.dcache.StoreCondReq_accesses::.cpu.data           51                       # number of StoreCondReq accesses(hits+misses)
system.cpu.dcache.StoreCondReq_accesses::total           51                       # number of StoreCondReq accesses(hits+misses)
system.cpu.dcache.tags.pwrStateResidencyTicks::UNDEFINED  24524346875                       # Cumulative time (in ticks) in various power states
system.cpu.dcache.tags.tagsinuse           257.845379                       # Cycle average of tags in use
system.cpu.dcache.tags.total_refs            12719490                       # Total number of references to valid blocks.
system.cpu.dcache.tags.sampled_refs               325                       # Sample count of references to valid blocks.
system.cpu.dcache.tags.avg_refs          39136.892308                       # Average number of references to valid blocks.
system.cpu.dcache.tags.warmup_cycle            149000                       # Cycle when the warmup percentage was hit.
system.cpu.dcache.tags.occ_blocks::.cpu.data   257.845379                       # Average occupied blocks per requestor
system.cpu.dcache.tags.occ_percent::.cpu.data     0.503604                       # Average percentage of cache occupancy
system.cpu.dcache.tags.occ_percent::total     0.503604                       # Average percentage of cache occupancy
system.cpu.dcache.tags.occ_task_id_blocks::1024          318                       # Occupied blocks per task id
system.cpu.dcache.tags.age_task_id_blocks_1024::0           28                       # Occupied blocks per task id
system.cpu.dcache.tags.age_task_id_blocks_1024::1           39                       # Occupied blocks per task id
system.cpu.dcache.tags.age_task_id_blocks_1024::4          251                       # Occupied blocks per task id
system.cpu.dcache.tags.occ_task_id_percent::1024     0.621094                       # Percentage of cache occupancy per task id
system.cpu.dcache.tags.tag_accesses          50881409                       # Number of tag accesses
system.cpu.dcache.tags.data_accesses         50881409                       # Number of data accesses

---------- End Simulation Statistics   ----------
