
---------- Begin Simulation Statistics ----------
final_tick                                27234198125                       # Number of ticks from beginning of simulation (restored from checkpoints and never reset)
host_inst_rate                                 191193                       # Simulator instruction rate (inst/s)
host_mem_usage                                 696504                       # Number of bytes of host memory used
host_op_rate                                   203857                       # Simulator op (including micro ops) rate (op/s)
host_seconds                                   379.18                       # Real time elapsed on the host
host_tick_rate                               71824847                       # Simulator tick rate (ticks/s)
sim_freq                                 1000000000000                       # Frequency of simulated ticks
sim_insts                                    72495453                       # Number of instructions simulated
sim_ops                                      77297624                       # Number of ops (including micro ops) simulated
sim_seconds                                  0.027234                       # Number of seconds simulated
sim_ticks                                 27234198125                       # Number of ticks simulated
system.cpu.branchPred.BTBCorrect                    0                       # Number of correct BTB predictions (this stat may not work properly.
system.cpu.branchPred.BTBHitPct             75.449951                       # BTB Hit Percentage
system.cpu.branchPred.BTBHits                 5349437                       # Number of BTB hits
system.cpu.branchPred.BTBLookups              7090047                       # Number of BTB lookups
system.cpu.branchPred.RASInCorrect               5780                       # Number of incorrect RAS predictions.
system.cpu.branchPred.condIncorrect            341466                       # Number of conditional branches incorrect
system.cpu.branchPred.condPredicted           7523205                       # Number of conditional branches predicted
system.cpu.branchPred.indirectHits             508470                       # Number of indirect target hits.
system.cpu.branchPred.indirectLookups          512318                       # Number of indirect predictor lookups.
system.cpu.branchPred.indirectMisses             3848                       # Number of indirect misses.
system.cpu.branchPred.lookups                11896436                       # Number of BP lookups
system.cpu.branchPred.usedRAS                 1909408                       # Number of times the RAS was used to get a target.
system.cpu.branchPredindirectMispredicted        85018                       # Number of mispredicted indirect branches.
system.cpu.cc_regfile_reads                 269351585                       # number of cc regfile reads
system.cpu.cc_regfile_writes                 39749629                       # number of cc regfile writes
system.cpu.commit.amos                              0                       # Number of atomic instructions committed
system.cpu.commit.branchMispredicts            340980                       # The number of times a branch was mispredicted
system.cpu.commit.branches                   10448019                       # Number of branches committed
system.cpu.commit.bw_lim_events               1536257                       # number cycles where commit BW limit reached
system.cpu.commit.commitNonSpecStalls             117                       # The number of times commit has been forced to stall to communicate backwards
system.cpu.commit.commitSquashedInsts         6078301                       # The number of squashed insts skipped by commit
system.cpu.commit.committedInsts             72495453                       # Number of instructions committed
system.cpu.commit.committedOps               77297624                       # Number of ops (including micro ops) committed
system.cpu.commit.committed_per_cycle::samples     42621872                       # Number of insts commited each cycle
system.cpu.commit.committed_per_cycle::mean     1.813567                       # Number of insts commited each cycle
system.cpu.commit.committed_per_cycle::stdev     1.901822                       # Number of insts commited each cycle
system.cpu.commit.committed_per_cycle::underflows            0      0.00%      0.00% # Number of insts commited each cycle
system.cpu.commit.committed_per_cycle::0      9322444     21.87%     21.87% # Number of insts commited each cycle
system.cpu.commit.committed_per_cycle::1     16120032     37.82%     59.69% # Number of insts commited each cycle
system.cpu.commit.committed_per_cycle::2      7253623     17.02%     76.71% # Number of insts commited each cycle
system.cpu.commit.committed_per_cycle::3      2975328      6.98%     83.69% # Number of insts commited each cycle
system.cpu.commit.committed_per_cycle::4      2922956      6.86%     90.55% # Number of insts commited each cycle
system.cpu.commit.committed_per_cycle::5      1531929      3.59%     94.14% # Number of insts commited each cycle
system.cpu.commit.committed_per_cycle::6       612284      1.44%     95.58% # Number of insts commited each cycle
system.cpu.commit.committed_per_cycle::7       347019      0.81%     96.40% # Number of insts commited each cycle
system.cpu.commit.committed_per_cycle::8      1536257      3.60%    100.00% # Number of insts commited each cycle
system.cpu.commit.committed_per_cycle::overflows            0      0.00%    100.00% # Number of insts commited each cycle
system.cpu.commit.committed_per_cycle::min_value            0                       # Number of insts commited each cycle
system.cpu.commit.committed_per_cycle::max_value            8                       # Number of insts commited each cycle
system.cpu.commit.committed_per_cycle::total     42621872                       # Number of insts commited each cycle
system.cpu.commit.fp_insts                          0                       # Number of committed floating point instructions.
system.cpu.commit.function_calls              2070498                       # Number of function calls committed.
system.cpu.commit.int_insts                  71605204                       # Number of committed integer instructions.
system.cpu.commit.loads                       8669916                       # Number of loads committed
system.cpu.commit.membars                          52                       # Number of memory barriers committed
system.cpu.commit.op_class_0::No_OpClass            0      0.00%      0.00% # Class of committed instruction
system.cpu.commit.op_class_0::IntAlu         62456086     80.80%     80.80% # Class of committed instruction
system.cpu.commit.op_class_0::IntMult          913677      1.18%     81.98% # Class of committed instruction
system.cpu.commit.op_class_0::IntDiv                0      0.00%     81.98% # Class of committed instruction
system.cpu.commit.op_class_0::FloatAdd              0      0.00%     81.98% # Class of committed instruction
system.cpu.commit.op_class_0::FloatCmp              0      0.00%     81.98% # Class of committed instruction
system.cpu.commit.op_class_0::FloatCvt              0      0.00%     81.98% # Class of committed instruction
system.cpu.commit.op_class_0::FloatMult             0      0.00%     81.98% # Class of committed instruction
system.cpu.commit.op_class_0::FloatMultAcc            0      0.00%     81.98% # Class of committed instruction
system.cpu.commit.op_class_0::FloatDiv              0      0.00%     81.98% # Class of committed instruction
system.cpu.commit.op_class_0::FloatMisc             0      0.00%     81.98% # Class of committed instruction
system.cpu.commit.op_class_0::FloatSqrt             0      0.00%     81.98% # Class of committed instruction
system.cpu.commit.op_class_0::SimdAdd               0      0.00%     81.98% # Class of committed instruction
system.cpu.commit.op_class_0::SimdAddAcc            0      0.00%     81.98% # Class of committed instruction
system.cpu.commit.op_class_0::SimdAlu               0      0.00%     81.98% # Class of committed instruction
system.cpu.commit.op_class_0::SimdCmp               0      0.00%     81.98% # Class of committed instruction
system.cpu.commit.op_class_0::SimdCvt               0      0.00%     81.98% # Class of committed instruction
system.cpu.commit.op_class_0::SimdMisc              0      0.00%     81.98% # Class of committed instruction
system.cpu.commit.op_class_0::SimdMult              0      0.00%     81.98% # Class of committed instruction
system.cpu.commit.op_class_0::SimdMultAcc            0      0.00%     81.98% # Class of committed instruction
system.cpu.commit.op_class_0::SimdShift             0      0.00%     81.98% # Class of committed instruction
system.cpu.commit.op_class_0::SimdShiftAcc            0      0.00%     81.98% # Class of committed instruction
system.cpu.commit.op_class_0::SimdDiv               0      0.00%     81.98% # Class of committed instruction
system.cpu.commit.op_class_0::SimdSqrt              0      0.00%     81.98% # Class of committed instruction
system.cpu.commit.op_class_0::SimdFloatAdd            0      0.00%     81.98% # Class of committed instruction
system.cpu.commit.op_class_0::SimdFloatAlu            0      0.00%     81.98% # Class of committed instruction
system.cpu.commit.op_class_0::SimdFloatCmp            0      0.00%     81.98% # Class of committed instruction
system.cpu.commit.op_class_0::SimdFloatCvt            0      0.00%     81.98% # Class of committed instruction
system.cpu.commit.op_class_0::SimdFloatDiv            0      0.00%     81.98% # Class of committed instruction
system.cpu.commit.op_class_0::SimdFloatMisc            4      0.00%     81.98% # Class of committed instruction
system.cpu.commit.op_class_0::SimdFloatMult            0      0.00%     81.98% # Class of committed instruction
system.cpu.commit.op_class_0::SimdFloatMultAcc            0      0.00%     81.98% # Class of committed instruction
system.cpu.commit.op_class_0::SimdFloatSqrt            0      0.00%     81.98% # Class of committed instruction
system.cpu.commit.op_class_0::SimdReduceAdd            0      0.00%     81.98% # Class of committed instruction
system.cpu.commit.op_class_0::SimdReduceAlu            0      0.00%     81.98% # Class of committed instruction
system.cpu.commit.op_class_0::SimdReduceCmp            0      0.00%     81.98% # Class of committed instruction
system.cpu.commit.op_class_0::SimdFloatReduceAdd            0      0.00%     81.98% # Class of committed instruction
system.cpu.commit.op_class_0::SimdFloatReduceCmp            0      0.00%     81.98% # Class of committed instruction
system.cpu.commit.op_class_0::SimdAes               0      0.00%     81.98% # Class of committed instruction
system.cpu.commit.op_class_0::SimdAesMix            0      0.00%     81.98% # Class of committed instruction
system.cpu.commit.op_class_0::SimdSha1Hash            0      0.00%     81.98% # Class of committed instruction
system.cpu.commit.op_class_0::SimdSha1Hash2            0      0.00%     81.98% # Class of committed instruction
system.cpu.commit.op_class_0::SimdSha256Hash            0      0.00%     81.98% # Class of committed instruction
system.cpu.commit.op_class_0::SimdSha256Hash2            0      0.00%     81.98% # Class of committed instruction
system.cpu.commit.op_class_0::SimdShaSigma2            0      0.00%     81.98% # Class of committed instruction
system.cpu.commit.op_class_0::SimdShaSigma3            0      0.00%     81.98% # Class of committed instruction
system.cpu.commit.op_class_0::SimdPredAlu            0      0.00%     81.98% # Class of committed instruction
system.cpu.commit.op_class_0::MemRead         8669916     11.22%     93.20% # Class of committed instruction
system.cpu.commit.op_class_0::MemWrite        5257941      6.80%    100.00% # Class of committed instruction
system.cpu.commit.op_class_0::FloatMemRead            0      0.00%    100.00% # Class of committed instruction
system.cpu.commit.op_class_0::FloatMemWrite            0      0.00%    100.00% # Class of committed instruction
system.cpu.commit.op_class_0::IprAccess             0      0.00%    100.00% # Class of committed instruction
system.cpu.commit.op_class_0::InstPrefetch            0      0.00%    100.00% # Class of committed instruction
system.cpu.commit.op_class_0::total          77297624                       # Class of committed instruction
system.cpu.commit.refs                       13927857                       # Number of memory references committed
system.cpu.commit.swp_count                         0                       # Number of s/w prefetches committed
system.cpu.commit.vec_insts                         0                       # Number of committed Vector instructions.
system.cpu.committedInsts                    72495453                       # Number of Instructions Simulated
system.cpu.committedOps                      77297624                       # Number of Ops (including micro ops) Simulated
system.cpu.cpi                               0.601068                       # CPI: Cycles Per Instruction
system.cpu.cpi_total                         0.601068                       # CPI: Total CPI of All Threads
system.cpu.decode.BlockedCycles               1278909                       # Number of cycles decode is blocked
system.cpu.decode.BranchMispred                   511                       # Number of times decode detected a branch misprediction
system.cpu.decode.BranchResolved              5361457                       # Number of times decode resolved a branch
system.cpu.decode.DecodedInsts               86128494                       # Number of instructions handled by decode
system.cpu.decode.IdleCycles                  1329844                       # Number of cycles decode is idle
system.cpu.decode.RunCycles                  39863695                       # Number of cycles decode is running
system.cpu.decode.SquashCycles                 341590                       # Number of cycles decode is squashing
system.cpu.decode.SquashedInsts               1386544                       # Number of squashed instructions handled by decode
system.cpu.decode.UnblockCycles                720089                       # Number of cycles decode is unblocking
system.cpu.dtb.accesses                             0                       # DTB accesses
system.cpu.dtb.align_faults                         0                       # Number of TLB faults due to alignment restrictions
system.cpu.dtb.domain_faults                        0                       # Number of TLB faults due to domain restrictions
system.cpu.dtb.flush_entries                        0                       # Number of entries that have been flushed from TLB
system.cpu.dtb.flush_tlb                            0                       # Number of times complete TLB was flushed
system.cpu.dtb.flush_tlb_asid                       0                       # Number of times TLB was flushed by ASID
system.cpu.dtb.flush_tlb_mva                        0                       # Number of times TLB was flushed by MVA
system.cpu.dtb.flush_tlb_mva_asid                   0                       # Number of times TLB was flushed by MVA & ASID
system.cpu.dtb.hits                                 0                       # DTB hits
system.cpu.dtb.inst_accesses                        0                       # ITB inst accesses
system.cpu.dtb.inst_hits                            0                       # ITB inst hits
system.cpu.dtb.inst_misses                          0                       # ITB inst misses
system.cpu.dtb.misses                               0                       # DTB misses
system.cpu.dtb.perms_faults                         0                       # Number of TLB faults due to permissions restrictions
system.cpu.dtb.prefetch_faults                      0                       # Number of TLB faults due to prefetch
system.cpu.dtb.read_accesses                        0                       # DTB read accesses
system.cpu.dtb.read_hits                            0                       # DTB read hits
system.cpu.dtb.read_misses                          0                       # DTB read misses
system.cpu.dtb.stage2_mmu.stage2_tlb.accesses            0                       # DTB accesses
system.cpu.dtb.stage2_mmu.stage2_tlb.align_faults            0                       # Number of TLB faults due to alignment restrictions
system.cpu.dtb.stage2_mmu.stage2_tlb.domain_faults            0                       # Number of TLB faults due to domain restrictions
system.cpu.dtb.stage2_mmu.stage2_tlb.flush_entries            0                       # Number of entries that have been flushed from TLB
system.cpu.dtb.stage2_mmu.stage2_tlb.flush_tlb            0                       # Number of times complete TLB was flushed
system.cpu.dtb.stage2_mmu.stage2_tlb.flush_tlb_asid            0                       # Number of times TLB was flushed by ASID
system.cpu.dtb.stage2_mmu.stage2_tlb.flush_tlb_mva            0                       # Number of times TLB was flushed by MVA
system.cpu.dtb.stage2_mmu.stage2_tlb.flush_tlb_mva_asid            0                       # Number of times TLB was flushed by MVA & ASID
system.cpu.dtb.stage2_mmu.stage2_tlb.hits            0                       # DTB hits
system.cpu.dtb.stage2_mmu.stage2_tlb.inst_accesses            0                       # ITB inst accesses
system.cpu.dtb.stage2_mmu.stage2_tlb.inst_hits            0                       # ITB inst hits
system.cpu.dtb.stage2_mmu.stage2_tlb.inst_misses            0                       # ITB inst misses
system.cpu.dtb.stage2_mmu.stage2_tlb.misses            0                       # DTB misses
system.cpu.dtb.stage2_mmu.stage2_tlb.perms_faults            0                       # Number of TLB faults due to permissions restrictions
system.cpu.dtb.stage2_mmu.stage2_tlb.prefetch_faults            0                       # Number of TLB faults due to prefetch
system.cpu.dtb.stage2_mmu.stage2_tlb.read_accesses            0                       # DTB read accesses
system.cpu.dtb.stage2_mmu.stage2_tlb.read_hits            0                       # DTB read hits
system.cpu.dtb.stage2_mmu.stage2_tlb.read_misses            0                       # DTB read misses
system.cpu.dtb.stage2_mmu.stage2_tlb.walker.walkRequestOrigin_Requested::Data            0                       # Table walker requests started/completed, data/inst
system.cpu.dtb.stage2_mmu.stage2_tlb.walker.walkRequestOrigin_Requested::Inst            0                       # Table walker requests started/completed, data/inst
system.cpu.dtb.stage2_mmu.stage2_tlb.walker.walkRequestOrigin_Requested::total            0                       # Table walker requests started/completed, data/inst
system.cpu.dtb.stage2_mmu.stage2_tlb.walker.walkRequestOrigin_Completed::Data            0                       # Table walker requests started/completed, data/inst
system.cpu.dtb.stage2_mmu.stage2_tlb.walker.walkRequestOrigin_Completed::Inst            0                       # Table walker requests started/completed, data/inst
system.cpu.dtb.stage2_mmu.stage2_tlb.walker.walkRequestOrigin_Completed::total            0                       # Table walker requests started/completed, data/inst
system.cpu.dtb.stage2_mmu.stage2_tlb.walker.walkRequestOrigin::total            0                       # Table walker requests started/completed, data/inst
system.cpu.dtb.stage2_mmu.stage2_tlb.walker.walks            0                       # Table walker walks requested
system.cpu.dtb.stage2_mmu.stage2_tlb.write_accesses            0                       # DTB write accesses
system.cpu.dtb.stage2_mmu.stage2_tlb.write_hits            0                       # DTB write hits
system.cpu.dtb.stage2_mmu.stage2_tlb.write_misses            0                       # DTB write misses
system.cpu.dtb.walker.walkRequestOrigin_Requested::Data            0                       # Table walker requests started/completed, data/inst
system.cpu.dtb.walker.walkRequestOrigin_Requested::Inst            0                       # Table walker requests started/completed, data/inst
system.cpu.dtb.walker.walkRequestOrigin_Requested::total            0                       # Table walker requests started/completed, data/inst
system.cpu.dtb.walker.walkRequestOrigin_Completed::Data            0                       # Table walker requests started/completed, data/inst
system.cpu.dtb.walker.walkRequestOrigin_Completed::Inst            0                       # Table walker requests started/completed, data/inst
system.cpu.dtb.walker.walkRequestOrigin_Completed::total            0                       # Table walker requests started/completed, data/inst
system.cpu.dtb.walker.walkRequestOrigin::total            0                       # Table walker requests started/completed, data/inst
system.cpu.dtb.walker.walks                         0                       # Table walker walks requested
system.cpu.dtb.write_accesses                       0                       # DTB write accesses
system.cpu.dtb.write_hits                           0                       # DTB write hits
system.cpu.dtb.write_misses                         0                       # DTB write misses
system.cpu.fetch.Branches                    11896436                       # Number of branches that fetch encountered
system.cpu.fetch.CacheLines                  26679862                       # Number of cache lines fetched
system.cpu.fetch.Cycles                      42843284                       # Number of cycles fetch has run and was not squashing or blocked
system.cpu.fetch.IcacheSquashes                   520                       # Number of outstanding Icache misses that were squashed
system.cpu.fetch.IcacheWaitRetryStallCycles          737                       # Number of stall cycles due to full MSHR
system.cpu.fetch.Insts                       83318226                       # Number of instructions fetch has processed
system.cpu.fetch.MiscStallCycles                  181                       # Number of cycles fetch has spent waiting on interrupts, or bad addresses, or out of MSHRs
system.cpu.fetch.PendingTrapStallCycles            90                       # Number of stall cycles due to pending traps
system.cpu.fetch.SquashCycles                  684164                       # Number of cycles fetch has spent squashing
system.cpu.fetch.branchRate                  0.273012                       # Number of branch fetches per cycle
system.cpu.fetch.icacheStallCycles             347753                       # Number of cycles fetch is stalled on an Icache miss
system.cpu.fetch.predictedBranches            7767315                       # Number of branches that fetch has predicted taken
system.cpu.fetch.rate                        1.912077                       # Number of inst fetches per cycle
system.cpu.fetch.rateDist::samples           43534127                       # Number of instructions fetched each cycle (Total)
system.cpu.fetch.rateDist::mean              2.030005                       # Number of instructions fetched each cycle (Total)
system.cpu.fetch.rateDist::stdev             0.995429                       # Number of instructions fetched each cycle (Total)
system.cpu.fetch.rateDist::underflows               0      0.00%      0.00% # Number of instructions fetched each cycle (Total)
system.cpu.fetch.rateDist::0                   701485      1.61%      1.61% # Number of instructions fetched each cycle (Total)
system.cpu.fetch.rateDist::1                 18830566     43.25%     44.87% # Number of instructions fetched each cycle (Total)
system.cpu.fetch.rateDist::2                  2462300      5.66%     50.52% # Number of instructions fetched each cycle (Total)
system.cpu.fetch.rateDist::3                 21539776     49.48%    100.00% # Number of instructions fetched each cycle (Total)
system.cpu.fetch.rateDist::overflows                0      0.00%    100.00% # Number of instructions fetched each cycle (Total)
system.cpu.fetch.rateDist::min_value                0                       # Number of instructions fetched each cycle (Total)
system.cpu.fetch.rateDist::max_value                3                       # Number of instructions fetched each cycle (Total)
system.cpu.fetch.rateDist::total             43534127                       # Number of instructions fetched each cycle (Total)
system.cpu.idleCycles                           40591                       # Total number of cycles that the CPU has spent unscheduled due to idling
system.cpu.iew.branchMispredicts               363432                       # Number of branch mispredicts detected at execute
system.cpu.iew.exec_branches                 10713051                       # Number of branches executed
system.cpu.iew.exec_nop                             1                       # number of nop insts executed
system.cpu.iew.exec_rate                     1.838787                       # Inst execution rate
system.cpu.iew.exec_refs                     14502828                       # number of memory reference insts executed
system.cpu.iew.exec_stores                    5278428                       # Number of stores executed
system.cpu.iew.exec_swp                             0                       # number of swp insts executed
system.cpu.iew.iewBlockCycles                  571134                       # Number of cycles IEW is blocking
system.cpu.iew.iewBranchMispredictRate       3.392423                       # Percentage of branch mispredicts
system.cpu.iew.iewBranchPercentage          13.370486                       # Percentage of branches executed
system.cpu.iew.iewDispLoadInsts               9554876                       # Number of dispatched load instructions
system.cpu.iew.iewDispNonSpecInsts                 69                       # Number of dispatched non-speculative instructions
system.cpu.iew.iewDispSquashedInsts                 0                       # Number of squashed instructions skipped by dispatch
system.cpu.iew.iewDispStoreInsts              5420103                       # Number of dispatched store instructions
system.cpu.iew.iewDispatchedInsts            84078602                       # Number of instructions dispatched to IQ
system.cpu.iew.iewExecLoadInsts               9224400                       # Number of load instructions executed
system.cpu.iew.iewExecSquashedInsts            359851                       # Number of squashed instructions skipped in execute
system.cpu.iew.iewExecutedInsts              80124617                       # Number of executed instructions
system.cpu.iew.iewIQFullEvents                      4                       # Number of times the IQ has become full, causing a stall
system.cpu.iew.iewIdleCycles                        0                       # Number of cycles IEW is idle
system.cpu.iew.iewLSQFullEvents                   159                       # Number of times the LSQ has become full, causing a stall
system.cpu.iew.iewSquashCycles                 341590                       # Number of cycles IEW is squashing
system.cpu.iew.iewUnblockCycles                   163                       # Number of cycles IEW is unblocking
system.cpu.iew.lsq.thread0.blockedLoads             0                       # Number of blocked loads due to partial load-store forwarding
system.cpu.iew.lsq.thread0.cacheBlocked            54                       # Number of times an access to memory failed due to the cache being blocked
system.cpu.iew.lsq.thread0.forwLoads           869068                       # Number of loads that had data forwarded from stores
system.cpu.iew.lsq.thread0.ignoredResponses           22                       # Number of memory responses ignored because the instruction is squashed
system.cpu.iew.lsq.thread0.invAddrLoads             0                       # Number of loads ignored due to an invalid address
system.cpu.iew.lsq.thread0.invAddrSwpfs             0                       # Number of software prefetches ignored due to an invalid address
system.cpu.iew.lsq.thread0.memOrderViolation          633                       # Number of memory ordering violations
system.cpu.iew.lsq.thread0.rescheduledLoads        29596                       # Number of loads that were rescheduled
system.cpu.iew.lsq.thread0.squashedLoads       884960                       # Number of loads squashed
system.cpu.iew.lsq.thread0.squashedStores       162162                       # Number of stores squashed
system.cpu.iew.memOrderViolationEvents            633                       # Number of memory order violations
system.cpu.iew.predictedNotTakenIncorrect       117756                       # Number of branches that were predicted not taken incorrectly
system.cpu.iew.predictedTakenIncorrect         245676                       # Number of branches that were predicted taken incorrectly
system.cpu.iew.wb_consumers                 123790323                       # num instructions consuming a value
system.cpu.iew.wb_count                      79904202                       # cumulative count of insts written-back
system.cpu.iew.wb_fanout                     0.485179                       # average fanout of values written-back
system.cpu.iew.wb_producers                  60060434                       # num instructions producing a value
system.cpu.iew.wb_rate                       1.833728                       # insts written-back per cycle
system.cpu.iew.wb_sent                       79959189                       # cumulative count of insts sent to commit
system.cpu.int_regfile_reads                 96406043                       # number of integer regfile reads
system.cpu.int_regfile_writes                56773455                       # number of integer regfile writes
system.cpu.ipc                               1.663704                       # IPC: Instructions Per Cycle
system.cpu.ipc_total                         1.663704                       # IPC: Total IPC of All Threads
system.cpu.iq.FU_type_0::No_OpClass                 8      0.00%      0.00% # Type of FU issued
system.cpu.iq.FU_type_0::IntAlu              64893475     80.63%     80.63% # Type of FU issued
system.cpu.iq.FU_type_0::IntMult               935872      1.16%     81.79% # Type of FU issued
system.cpu.iq.FU_type_0::IntDiv                     0      0.00%     81.79% # Type of FU issued
system.cpu.iq.FU_type_0::FloatAdd                   0      0.00%     81.79% # Type of FU issued
system.cpu.iq.FU_type_0::FloatCmp                   0      0.00%     81.79% # Type of FU issued
system.cpu.iq.FU_type_0::FloatCvt                   0      0.00%     81.79% # Type of FU issued
system.cpu.iq.FU_type_0::FloatMult                  0      0.00%     81.79% # Type of FU issued
system.cpu.iq.FU_type_0::FloatMultAcc               0      0.00%     81.79% # Type of FU issued
system.cpu.iq.FU_type_0::FloatDiv                   0      0.00%     81.79% # Type of FU issued
system.cpu.iq.FU_type_0::FloatMisc                  0      0.00%     81.79% # Type of FU issued
system.cpu.iq.FU_type_0::FloatSqrt                  0      0.00%     81.79% # Type of FU issued
system.cpu.iq.FU_type_0::SimdAdd                    0      0.00%     81.79% # Type of FU issued
system.cpu.iq.FU_type_0::SimdAddAcc                 0      0.00%     81.79% # Type of FU issued
system.cpu.iq.FU_type_0::SimdAlu                    0      0.00%     81.79% # Type of FU issued
system.cpu.iq.FU_type_0::SimdCmp                    0      0.00%     81.79% # Type of FU issued
system.cpu.iq.FU_type_0::SimdCvt                    0      0.00%     81.79% # Type of FU issued
system.cpu.iq.FU_type_0::SimdMisc                   0      0.00%     81.79% # Type of FU issued
system.cpu.iq.FU_type_0::SimdMult                   0      0.00%     81.79% # Type of FU issued
system.cpu.iq.FU_type_0::SimdMultAcc                0      0.00%     81.79% # Type of FU issued
system.cpu.iq.FU_type_0::SimdShift                  0      0.00%     81.79% # Type of FU issued
system.cpu.iq.FU_type_0::SimdShiftAcc               0      0.00%     81.79% # Type of FU issued
system.cpu.iq.FU_type_0::SimdDiv                    0      0.00%     81.79% # Type of FU issued
system.cpu.iq.FU_type_0::SimdSqrt                   0      0.00%     81.79% # Type of FU issued
system.cpu.iq.FU_type_0::SimdFloatAdd               0      0.00%     81.79% # Type of FU issued
system.cpu.iq.FU_type_0::SimdFloatAlu               0      0.00%     81.79% # Type of FU issued
system.cpu.iq.FU_type_0::SimdFloatCmp               0      0.00%     81.79% # Type of FU issued
system.cpu.iq.FU_type_0::SimdFloatCvt               0      0.00%     81.79% # Type of FU issued
system.cpu.iq.FU_type_0::SimdFloatDiv               0      0.00%     81.79% # Type of FU issued
system.cpu.iq.FU_type_0::SimdFloatMisc              4      0.00%     81.79% # Type of FU issued
system.cpu.iq.FU_type_0::SimdFloatMult              0      0.00%     81.79% # Type of FU issued
system.cpu.iq.FU_type_0::SimdFloatMultAcc            0      0.00%     81.79% # Type of FU issued
system.cpu.iq.FU_type_0::SimdFloatSqrt              0      0.00%     81.79% # Type of FU issued
system.cpu.iq.FU_type_0::SimdReduceAdd              0      0.00%     81.79% # Type of FU issued
system.cpu.iq.FU_type_0::SimdReduceAlu              0      0.00%     81.79% # Type of FU issued
system.cpu.iq.FU_type_0::SimdReduceCmp              0      0.00%     81.79% # Type of FU issued
system.cpu.iq.FU_type_0::SimdFloatReduceAdd            0      0.00%     81.79% # Type of FU issued
system.cpu.iq.FU_type_0::SimdFloatReduceCmp            0      0.00%     81.79% # Type of FU issued
system.cpu.iq.FU_type_0::SimdAes                    0      0.00%     81.79% # Type of FU issued
system.cpu.iq.FU_type_0::SimdAesMix                 0      0.00%     81.79% # Type of FU issued
system.cpu.iq.FU_type_0::SimdSha1Hash               0      0.00%     81.79% # Type of FU issued
system.cpu.iq.FU_type_0::SimdSha1Hash2              0      0.00%     81.79% # Type of FU issued
system.cpu.iq.FU_type_0::SimdSha256Hash             0      0.00%     81.79% # Type of FU issued
system.cpu.iq.FU_type_0::SimdSha256Hash2            0      0.00%     81.79% # Type of FU issued
system.cpu.iq.FU_type_0::SimdShaSigma2              0      0.00%     81.79% # Type of FU issued
system.cpu.iq.FU_type_0::SimdShaSigma3              0      0.00%     81.79% # Type of FU issued
system.cpu.iq.FU_type_0::SimdPredAlu                0      0.00%     81.79% # Type of FU issued
system.cpu.iq.FU_type_0::MemRead              9367228     11.64%     93.43% # Type of FU issued
system.cpu.iq.FU_type_0::MemWrite             5287881      6.57%    100.00% # Type of FU issued
system.cpu.iq.FU_type_0::FloatMemRead               0      0.00%    100.00% # Type of FU issued
system.cpu.iq.FU_type_0::FloatMemWrite              0      0.00%    100.00% # Type of FU issued
system.cpu.iq.FU_type_0::IprAccess                  0      0.00%    100.00% # Type of FU issued
system.cpu.iq.FU_type_0::InstPrefetch               0      0.00%    100.00% # Type of FU issued
system.cpu.iq.FU_type_0::total               80484468                       # Type of FU issued
system.cpu.iq.fp_alu_accesses                       0                       # Number of floating point alu accesses
system.cpu.iq.fp_inst_queue_reads                   0                       # Number of floating instruction queue reads
system.cpu.iq.fp_inst_queue_wakeup_accesses            0                       # Number of floating instruction queue wakeup accesses
system.cpu.iq.fp_inst_queue_writes                  0                       # Number of floating instruction queue writes
system.cpu.iq.fu_busy_cnt                    21446421                       # FU busy when requested
system.cpu.iq.fu_busy_rate                   0.266467                       # FU busy rate (busy events/executed inst)
system.cpu.iq.fu_full::No_OpClass                   0      0.00%      0.00% # attempts to use FU when none available
system.cpu.iq.fu_full::IntAlu                17770877     82.86%     82.86% # attempts to use FU when none available
system.cpu.iq.fu_full::IntMult                     88      0.00%     82.86% # attempts to use FU when none available
system.cpu.iq.fu_full::IntDiv                       0      0.00%     82.86% # attempts to use FU when none available
system.cpu.iq.fu_full::FloatAdd                     0      0.00%     82.86% # attempts to use FU when none available
system.cpu.iq.fu_full::FloatCmp                     0      0.00%     82.86% # attempts to use FU when none available
system.cpu.iq.fu_full::FloatCvt                     0      0.00%     82.86% # attempts to use FU when none available
system.cpu.iq.fu_full::FloatMult                    0      0.00%     82.86% # attempts to use FU when none available
system.cpu.iq.fu_full::FloatMultAcc                 0      0.00%     82.86% # attempts to use FU when none available
system.cpu.iq.fu_full::FloatDiv                     0      0.00%     82.86% # attempts to use FU when none available
system.cpu.iq.fu_full::FloatMisc                    0      0.00%     82.86% # attempts to use FU when none available
system.cpu.iq.fu_full::FloatSqrt                    0      0.00%     82.86% # attempts to use FU when none available
system.cpu.iq.fu_full::SimdAdd                      0      0.00%     82.86% # attempts to use FU when none available
system.cpu.iq.fu_full::SimdAddAcc                   0      0.00%     82.86% # attempts to use FU when none available
system.cpu.iq.fu_full::SimdAlu                      0      0.00%     82.86% # attempts to use FU when none available
system.cpu.iq.fu_full::SimdCmp                      0      0.00%     82.86% # attempts to use FU when none available
system.cpu.iq.fu_full::SimdCvt                      0      0.00%     82.86% # attempts to use FU when none available
system.cpu.iq.fu_full::SimdMisc                     0      0.00%     82.86% # attempts to use FU when none available
system.cpu.iq.fu_full::SimdMult                     0      0.00%     82.86% # attempts to use FU when none available
system.cpu.iq.fu_full::SimdMultAcc                  0      0.00%     82.86% # attempts to use FU when none available
system.cpu.iq.fu_full::SimdShift                    0      0.00%     82.86% # attempts to use FU when none available
system.cpu.iq.fu_full::SimdShiftAcc                 0      0.00%     82.86% # attempts to use FU when none available
system.cpu.iq.fu_full::SimdDiv                      0      0.00%     82.86% # attempts to use FU when none available
system.cpu.iq.fu_full::SimdSqrt                     0      0.00%     82.86% # attempts to use FU when none available
system.cpu.iq.fu_full::SimdFloatAdd                 0      0.00%     82.86% # attempts to use FU when none available
system.cpu.iq.fu_full::SimdFloatAlu                 0      0.00%     82.86% # attempts to use FU when none available
system.cpu.iq.fu_full::SimdFloatCmp                 0      0.00%     82.86% # attempts to use FU when none available
system.cpu.iq.fu_full::SimdFloatCvt                 0      0.00%     82.86% # attempts to use FU when none available
system.cpu.iq.fu_full::SimdFloatDiv                 0      0.00%     82.86% # attempts to use FU when none available
system.cpu.iq.fu_full::SimdFloatMisc                0      0.00%     82.86% # attempts to use FU when none available
system.cpu.iq.fu_full::SimdFloatMult                0      0.00%     82.86% # attempts to use FU when none available
system.cpu.iq.fu_full::SimdFloatMultAcc             0      0.00%     82.86% # attempts to use FU when none available
system.cpu.iq.fu_full::SimdFloatSqrt                0      0.00%     82.86% # attempts to use FU when none available
system.cpu.iq.fu_full::SimdReduceAdd                0      0.00%     82.86% # attempts to use FU when none available
system.cpu.iq.fu_full::SimdReduceAlu                0      0.00%     82.86% # attempts to use FU when none available
system.cpu.iq.fu_full::SimdReduceCmp                0      0.00%     82.86% # attempts to use FU when none available
system.cpu.iq.fu_full::SimdFloatReduceAdd            0      0.00%     82.86% # attempts to use FU when none available
system.cpu.iq.fu_full::SimdFloatReduceCmp            0      0.00%     82.86% # attempts to use FU when none available
system.cpu.iq.fu_full::SimdAes                      0      0.00%     82.86% # attempts to use FU when none available
system.cpu.iq.fu_full::SimdAesMix                   0      0.00%     82.86% # attempts to use FU when none available
system.cpu.iq.fu_full::SimdSha1Hash                 0      0.00%     82.86% # attempts to use FU when none available
system.cpu.iq.fu_full::SimdSha1Hash2                0      0.00%     82.86% # attempts to use FU when none available
system.cpu.iq.fu_full::SimdSha256Hash               0      0.00%     82.86% # attempts to use FU when none available
system.cpu.iq.fu_full::SimdSha256Hash2              0      0.00%     82.86% # attempts to use FU when none available
system.cpu.iq.fu_full::SimdShaSigma2                0      0.00%     82.86% # attempts to use FU when none available
system.cpu.iq.fu_full::SimdShaSigma3                0      0.00%     82.86% # attempts to use FU when none available
system.cpu.iq.fu_full::SimdPredAlu                  0      0.00%     82.86% # attempts to use FU when none available
system.cpu.iq.fu_full::MemRead                2637913     12.30%     95.16% # attempts to use FU when none available
system.cpu.iq.fu_full::MemWrite               1037543      4.84%    100.00% # attempts to use FU when none available
system.cpu.iq.fu_full::FloatMemRead                 0      0.00%    100.00% # attempts to use FU when none available
system.cpu.iq.fu_full::FloatMemWrite                0      0.00%    100.00% # attempts to use FU when none available
system.cpu.iq.fu_full::IprAccess                    0      0.00%    100.00% # attempts to use FU when none available
system.cpu.iq.fu_full::InstPrefetch                 0      0.00%    100.00% # attempts to use FU when none available
system.cpu.iq.int_alu_accesses              101930881                       # Number of integer alu accesses
system.cpu.iq.int_inst_queue_reads          226306902                       # Number of integer instruction queue reads
system.cpu.iq.int_inst_queue_wakeup_accesses     79904202                       # Number of integer instruction queue wakeup accesses
system.cpu.iq.int_inst_queue_writes          90860208                       # Number of integer instruction queue writes
system.cpu.iq.iqInstsAdded                   84078480                       # Number of instructions added to the IQ (excludes non-spec)
system.cpu.iq.iqInstsIssued                  80484468                       # Number of instructions issued
system.cpu.iq.iqNonSpecInstsAdded                 121                       # Number of non-speculative instructions added to the IQ
system.cpu.iq.iqSquashedInstsExamined         6780976                       # Number of squashed instructions iterated over during squash; mainly for profiling
system.cpu.iq.iqSquashedInstsIssued            357418                       # Number of squashed instructions issued
system.cpu.iq.iqSquashedNonSpecRemoved              4                       # Number of squashed non-spec instructions that were removed
system.cpu.iq.iqSquashedOperandsExamined     18134888                       # Number of squashed operands that are examined and possibly removed from graph
system.cpu.iq.issued_per_cycle::samples      43534127                       # Number of insts issued each cycle
system.cpu.iq.issued_per_cycle::mean         1.848767                       # Number of insts issued each cycle
system.cpu.iq.issued_per_cycle::stdev        0.859823                       # Number of insts issued each cycle
system.cpu.iq.issued_per_cycle::underflows            0      0.00%      0.00% # Number of insts issued each cycle
system.cpu.iq.issued_per_cycle::0             3683811      8.46%      8.46% # Number of insts issued each cycle
system.cpu.iq.issued_per_cycle::1             8452388     19.42%     27.88% # Number of insts issued each cycle
system.cpu.iq.issued_per_cycle::2            22539923     51.78%     79.65% # Number of insts issued each cycle
system.cpu.iq.issued_per_cycle::3             8479786     19.48%     99.13% # Number of insts issued each cycle
system.cpu.iq.issued_per_cycle::4              378219      0.87%    100.00% # Number of insts issued each cycle
system.cpu.iq.issued_per_cycle::5                   0      0.00%    100.00% # Number of insts issued each cycle
system.cpu.iq.issued_per_cycle::6                   0      0.00%    100.00% # Number of insts issued each cycle
system.cpu.iq.issued_per_cycle::7                   0      0.00%    100.00% # Number of insts issued each cycle
system.cpu.iq.issued_per_cycle::8                   0      0.00%    100.00% # Number of insts issued each cycle
system.cpu.iq.issued_per_cycle::overflows            0      0.00%    100.00% # Number of insts issued each cycle
system.cpu.iq.issued_per_cycle::min_value            0                       # Number of insts issued each cycle
system.cpu.iq.issued_per_cycle::max_value            4                       # Number of insts issued each cycle
system.cpu.iq.issued_per_cycle::total        43534127                       # Number of insts issued each cycle
system.cpu.iq.rate                           1.847045                       # Inst issue rate
system.cpu.iq.vec_alu_accesses                      0                       # Number of vector alu accesses
system.cpu.iq.vec_inst_queue_reads                  0                       # Number of vector instruction queue reads
system.cpu.iq.vec_inst_queue_wakeup_accesses            0                       # Number of vector instruction queue wakeup accesses
system.cpu.iq.vec_inst_queue_writes                 0                       # Number of vector instruction queue writes
system.cpu.itb.accesses                             0                       # DTB accesses
system.cpu.itb.align_faults                         0                       # Number of TLB faults due to alignment restrictions
system.cpu.itb.domain_faults                        0                       # Number of TLB faults due to domain restrictions
system.cpu.itb.flush_entries                        0                       # Number of entries that have been flushed from TLB
system.cpu.itb.flush_tlb                            0                       # Number of times complete TLB was flushed
system.cpu.itb.flush_tlb_asid                       0                       # Number of times TLB was flushed by ASID
system.cpu.itb.flush_tlb_mva                        0                       # Number of times TLB was flushed by MVA
system.cpu.itb.flush_tlb_mva_asid                   0                       # Number of times TLB was flushed by MVA & ASID
system.cpu.itb.hits                                 0                       # DTB hits
system.cpu.itb.inst_accesses                        0                       # ITB inst accesses
system.cpu.itb.inst_hits                            0                       # ITB inst hits
system.cpu.itb.inst_misses                          0                       # ITB inst misses
system.cpu.itb.misses                               0                       # DTB misses
system.cpu.itb.perms_faults                         0                       # Number of TLB faults due to permissions restrictions
system.cpu.itb.prefetch_faults                      0                       # Number of TLB faults due to prefetch
system.cpu.itb.read_accesses                        0                       # DTB read accesses
system.cpu.itb.read_hits                            0                       # DTB read hits
system.cpu.itb.read_misses                          0                       # DTB read misses
system.cpu.itb.stage2_mmu.stage2_tlb.accesses            0                       # DTB accesses
system.cpu.itb.stage2_mmu.stage2_tlb.align_faults            0                       # Number of TLB faults due to alignment restrictions
system.cpu.itb.stage2_mmu.stage2_tlb.domain_faults            0                       # Number of TLB faults due to domain restrictions
system.cpu.itb.stage2_mmu.stage2_tlb.flush_entries            0                       # Number of entries that have been flushed from TLB
system.cpu.itb.stage2_mmu.stage2_tlb.flush_tlb            0                       # Number of times complete TLB was flushed
system.cpu.itb.stage2_mmu.stage2_tlb.flush_tlb_asid            0                       # Number of times TLB was flushed by ASID
system.cpu.itb.stage2_mmu.stage2_tlb.flush_tlb_mva            0                       # Number of times TLB was flushed by MVA
system.cpu.itb.stage2_mmu.stage2_tlb.flush_tlb_mva_asid            0                       # Number of times TLB was flushed by MVA & ASID
system.cpu.itb.stage2_mmu.stage2_tlb.hits            0                       # DTB hits
system.cpu.itb.stage2_mmu.stage2_tlb.inst_accesses            0                       # ITB inst accesses
system.cpu.itb.stage2_mmu.stage2_tlb.inst_hits            0                       # ITB inst hits
system.cpu.itb.stage2_mmu.stage2_tlb.inst_misses            0                       # ITB inst misses
system.cpu.itb.stage2_mmu.stage2_tlb.misses            0                       # DTB misses
system.cpu.itb.stage2_mmu.stage2_tlb.perms_faults            0                       # Number of TLB faults due to permissions restrictions
system.cpu.itb.stage2_mmu.stage2_tlb.prefetch_faults            0                       # Number of TLB faults due to prefetch
system.cpu.itb.stage2_mmu.stage2_tlb.read_accesses            0                       # DTB read accesses
system.cpu.itb.stage2_mmu.stage2_tlb.read_hits            0                       # DTB read hits
system.cpu.itb.stage2_mmu.stage2_tlb.read_misses            0                       # DTB read misses
system.cpu.itb.stage2_mmu.stage2_tlb.walker.walkRequestOrigin_Requested::Data            0                       # Table walker requests started/completed, data/inst
system.cpu.itb.stage2_mmu.stage2_tlb.walker.walkRequestOrigin_Requested::Inst            0                       # Table walker requests started/completed, data/inst
system.cpu.itb.stage2_mmu.stage2_tlb.walker.walkRequestOrigin_Requested::total            0                       # Table walker requests started/completed, data/inst
system.cpu.itb.stage2_mmu.stage2_tlb.walker.walkRequestOrigin_Completed::Data            0                       # Table walker requests started/completed, data/inst
system.cpu.itb.stage2_mmu.stage2_tlb.walker.walkRequestOrigin_Completed::Inst            0                       # Table walker requests started/completed, data/inst
system.cpu.itb.stage2_mmu.stage2_tlb.walker.walkRequestOrigin_Completed::total            0                       # Table walker requests started/completed, data/inst
system.cpu.itb.stage2_mmu.stage2_tlb.walker.walkRequestOrigin::total            0                       # Table walker requests started/completed, data/inst
system.cpu.itb.stage2_mmu.stage2_tlb.walker.walks            0                       # Table walker walks requested
system.cpu.itb.stage2_mmu.stage2_tlb.write_accesses            0                       # DTB write accesses
system.cpu.itb.stage2_mmu.stage2_tlb.write_hits            0                       # DTB write hits
system.cpu.itb.stage2_mmu.stage2_tlb.write_misses            0                       # DTB write misses
system.cpu.itb.walker.walkRequestOrigin_Requested::Data            0                       # Table walker requests started/completed, data/inst
system.cpu.itb.walker.walkRequestOrigin_Requested::Inst            0                       # Table walker requests started/completed, data/inst
system.cpu.itb.walker.walkRequestOrigin_Requested::total            0                       # Table walker requests started/completed, data/inst
system.cpu.itb.walker.walkRequestOrigin_Completed::Data            0                       # Table walker requests started/completed, data/inst
system.cpu.itb.walker.walkRequestOrigin_Completed::Inst            0                       # Table walker requests started/completed, data/inst
system.cpu.itb.walker.walkRequestOrigin_Completed::total            0                       # Table walker requests started/completed, data/inst
system.cpu.itb.walker.walkRequestOrigin::total            0                       # Table walker requests started/completed, data/inst
system.cpu.itb.walker.walks                         0                       # Table walker walks requested
system.cpu.itb.write_accesses                       0                       # DTB write accesses
system.cpu.itb.write_hits                           0                       # DTB write hits
system.cpu.itb.write_misses                         0                       # DTB write misses
system.cpu.memDep0.conflictingLoads            961029                       # Number of conflicting loads.
system.cpu.memDep0.conflictingStores              221                       # Number of conflicting stores.
system.cpu.memDep0.insertedLoads              9554876                       # Number of loads inserted to the mem dependence unit.
system.cpu.memDep0.insertedStores             5420103                       # Number of stores inserted to the mem dependence unit.
system.cpu.misc_regfile_reads                14338267                       # number of misc regfile reads
system.cpu.misc_regfile_writes                    206                       # number of misc regfile writes
system.cpu.numCycles                         43574718                       # number of cpu cycles simulated
system.cpu.numWorkItemsCompleted                    0                       # number of work items this cpu completed
system.cpu.numWorkItemsStarted                      0                       # number of work items this cpu started
system.cpu.rename.BlockCycles                  613537                       # Number of cycles rename is blocking
system.cpu.rename.CommittedMaps              94284884                       # Number of HB maps that are committed
system.cpu.rename.IQFullEvents                  18940                       # Number of times rename has blocked due to IQ full
system.cpu.rename.IdleCycles                  2723206                       # Number of cycles rename is idle
system.cpu.rename.LQFullEvents                      6                       # Number of times rename has blocked due to LQ full
system.cpu.rename.ROBFullEvents                342766                       # Number of times rename has blocked due to ROB full
system.cpu.rename.RenameLookups             382973721                       # Number of register rename lookups that rename has made
system.cpu.rename.RenamedInsts               84724318                       # Number of instructions processed by rename
system.cpu.rename.RenamedOperands           103889127                       # Number of destination operands rename has renamed
system.cpu.rename.RunCycles                  39174872                       # Number of cycles rename is running
system.cpu.rename.SQFullEvents                   1622                       # Number of times rename has blocked due to SQ full
system.cpu.rename.SquashCycles                 341590                       # Number of cycles rename is squashing
system.cpu.rename.SquashedInsts                682916                       # Number of squashed instructions processed by rename
system.cpu.rename.UnblockCycles                678678                       # Number of cycles rename is unblocking
system.cpu.rename.UndoneMaps                  9604242                       # Number of HB maps that are undone due to squashing
system.cpu.rename.int_rename_lookups        109102859                       # Number of integer rename lookups
system.cpu.rename.serializeStallCycles           2244                       # count of cycles rename stalled for serializing inst
system.cpu.rename.serializingInsts                 73                       # count of serializing insts renamed
system.cpu.rename.skidInsts                   1132370                       # count of insts added to the skid buffer
system.cpu.rename.tempSerializingInsts             69                       # count of temporary serializing insts renamed
system.cpu.rename.vec_rename_lookups               39                       # Number of vector rename lookups
system.cpu.rob.rob_reads                    124461383                       # The number of ROB reads
system.cpu.rob.rob_writes                   167667918                       # The number of ROB writes
system.cpu.timesIdled                             622                       # Number of times that the entire CPU went into an idle state and unscheduled itself
system.cpu.vec_regfile_reads                       32                       # number of vector regfile reads
system.cpu.workload.numSyscalls                    13                       # Number of system calls
system.membus.snoop_filter.hit_multi_requests           31                       # Number of requests hitting in the snoop filter with multiple (>1) holders of the requested data.
system.membus.snoop_filter.hit_multi_snoops            0                       # Number of snoops hitting in the snoop filter with multiple (>1) holders of the requested data.
system.membus.snoop_filter.hit_single_requests          347                       # Number of requests hitting in the snoop filter with a single holder of the requested data.
system.membus.snoop_filter.hit_single_snoops            0                       # Number of snoops hitting in the snoop filter with a single holder of the requested data.
system.membus.snoop_filter.tot_requests          1473                       # Total number of requests made to the snoop filter.
system.membus.snoop_filter.tot_snoops               0                       # Total number of snoops made to the snoop filter.
system.membus.pwrStateResidencyTicks::UNDEFINED  27234198125                       # Cumulative time (in ticks) in various power states
system.membus.trans_dist::ReadResp               1018                       # Transaction distribution
system.membus.trans_dist::WritebackDirty            2                       # Transaction distribution
system.membus.trans_dist::WritebackClean          322                       # Transaction distribution
system.membus.trans_dist::ReadExReq               131                       # Transaction distribution
system.membus.trans_dist::ReadExResp              131                       # Transaction distribution
system.membus.trans_dist::ReadCleanReq            822                       # Transaction distribution
system.membus.trans_dist::ReadSharedReq           196                       # Transaction distribution
system.membus.pkt_count_system.cpu.icache.mem_side::system.mem_ctrls.port         1960                       # Packet count per connected master and slave (bytes)
system.membus.pkt_count_system.cpu.dcache.mem_side::system.mem_ctrls.port          662                       # Packet count per connected master and slave (bytes)
system.membus.pkt_count::total                   2622                       # Packet count per connected master and slave (bytes)
system.membus.pkt_size_system.cpu.icache.mem_side::system.mem_ctrls.port        72832                       # Cumulative packet size per connected master and slave (bytes)
system.membus.pkt_size_system.cpu.dcache.mem_side::system.mem_ctrls.port        21440                       # Cumulative packet size per connected master and slave (bytes)
system.membus.pkt_size::total                   94272                       # Cumulative packet size per connected master and slave (bytes)
system.membus.snoops                                0                       # Total snoops (count)
system.membus.snoopTraffic                          0                       # Total snoop traffic (bytes)
system.membus.snoop_fanout::samples              1149                       # Request fanout histogram
system.membus.snoop_fanout::mean             0.046997                       # Request fanout histogram
system.membus.snoop_fanout::stdev            0.211725                       # Request fanout histogram
system.membus.snoop_fanout::underflows              0      0.00%      0.00% # Request fanout histogram
system.membus.snoop_fanout::0                    1095     95.30%     95.30% # Request fanout histogram
system.membus.snoop_fanout::1                      54      4.70%    100.00% # Request fanout histogram
system.membus.snoop_fanout::2                       0      0.00%    100.00% # Request fanout histogram
system.membus.snoop_fanout::3                       0      0.00%    100.00% # Request fanout histogram
system.membus.snoop_fanout::4                       0      0.00%    100.00% # Request fanout histogram
system.membus.snoop_fanout::overflows               0      0.00%    100.00% # Request fanout histogram
system.membus.snoop_fanout::min_value               0                       # Request fanout histogram
system.membus.snoop_fanout::max_value               1                       # Request fanout histogram
system.membus.snoop_fanout::total                1149                       # Request fanout histogram
system.membus.reqLayer0.occupancy             3310250                       # Layer occupancy (ticks)
system.membus.reqLayer0.utilization               0.0                       # Layer utilization (%)
system.membus.respLayer1.occupancy            4359375                       # Layer occupancy (ticks)
system.membus.respLayer1.utilization              0.0                       # Layer utilization (%)
system.membus.respLayer2.occupancy            1786500                       # Layer occupancy (ticks)
system.membus.respLayer2.utilization              0.0                       # Layer utilization (%)
system.voltage_domain.voltage                       1                       # Voltage in Volts
system.clk_domain.clock                          1000                       # Clock period in ticks
system.cpu_voltage_domain.voltage                   1                       # Voltage in Volts
system.mem_ctrls.pwrStateResidencyTicks::UNDEFINED  27234198125                       # Cumulative time (in ticks) in various power states
system.mem_ctrls.bytes_read::.cpu.inst          52608                       # Number of bytes read from this memory
system.mem_ctrls.bytes_read::.cpu.data          20928                       # Number of bytes read from this memory
system.mem_ctrls.bytes_read::total              73536                       # Number of bytes read from this memory
system.mem_ctrls.bytes_inst_read::.cpu.inst        52608                       # Number of instructions bytes read from this memory
system.mem_ctrls.bytes_inst_read::total         52608                       # Number of instructions bytes read from this memory
system.mem_ctrls.bytes_written::.writebacks          128                       # Number of bytes written to this memory
system.mem_ctrls.bytes_written::total             128                       # Number of bytes written to this memory
system.mem_ctrls.num_reads::.cpu.inst             822                       # Number of read requests responded to by this memory
system.mem_ctrls.num_reads::.cpu.data             327                       # Number of read requests responded to by this memory
system.mem_ctrls.num_reads::total                1149                       # Number of read requests responded to by this memory
system.mem_ctrls.num_writes::.writebacks            2                       # Number of write requests responded to by this memory
system.mem_ctrls.num_writes::total                  2                       # Number of write requests responded to by this memory
system.mem_ctrls.bw_read::.cpu.inst           1931689                       # Total read bandwidth from this memory (bytes/s)
system.mem_ctrls.bw_read::.cpu.data            768446                       # Total read bandwidth from this memory (bytes/s)
system.mem_ctrls.bw_read::total               2700135                       # Total read bandwidth from this memory (bytes/s)
system.mem_ctrls.bw_inst_read::.cpu.inst      1931689                       # Instruction read bandwidth from this memory (bytes/s)
system.mem_ctrls.bw_inst_read::total          1931689                       # Instruction read bandwidth from this memory (bytes/s)
system.mem_ctrls.bw_write::.writebacks           4700                       # Write bandwidth from this memory (bytes/s)
system.mem_ctrls.bw_write::total                 4700                       # Write bandwidth from this memory (bytes/s)
system.mem_ctrls.bw_total::.writebacks           4700                       # Total bandwidth to/from this memory (bytes/s)
system.mem_ctrls.bw_total::.cpu.inst          1931689                       # Total bandwidth to/from this memory (bytes/s)
system.mem_ctrls.bw_total::.cpu.data           768446                       # Total bandwidth to/from this memory (bytes/s)
system.mem_ctrls.bw_total::total              2704835                       # Total bandwidth to/from this memory (bytes/s)
system.mem_ctrls.avgPriority_.writebacks::samples       289.00                       # Average QoS priority value for accepted requests
system.mem_ctrls.avgPriority_.cpu.inst::samples       809.00                       # Average QoS priority value for accepted requests
system.mem_ctrls.avgPriority_.cpu.data::samples       327.00                       # Average QoS priority value for accepted requests
system.mem_ctrls.priorityMinLatency      0.000000018750                       # per QoS priority minimum request to response latency (s)
system.mem_ctrls.priorityMaxLatency      0.054368952500                       # per QoS priority maximum request to response latency (s)
system.mem_ctrls.numReadWriteTurnArounds           16                       # Number of turnarounds from READ to WRITE
system.mem_ctrls.numWriteReadTurnArounds           16                       # Number of turnarounds from WRITE to READ
system.mem_ctrls.numStayReadState                9504                       # Number of times bus staying in READ state
system.mem_ctrls.numStayWriteState                246                       # Number of times bus staying in WRITE state
system.mem_ctrls.readReqs                        1149                       # Number of read requests accepted
system.mem_ctrls.writeReqs                        293                       # Number of write requests accepted
system.mem_ctrls.readBursts                      1149                       # Number of DRAM read bursts, including those serviced by the write queue
system.mem_ctrls.writeBursts                      293                       # Number of DRAM write bursts, including those merged in the write queue
system.mem_ctrls.servicedByWrQ                     13                       # Number of DRAM read bursts serviced by the write queue
system.mem_ctrls.mergedWrBursts                     4                       # Number of DRAM write bursts merged with an existing one
system.mem_ctrls.neitherReadNorWriteReqs            0                       # Number of requests that are neither read nor write
system.mem_ctrls.perBankRdBursts::0               100                       # Per bank write bursts
system.mem_ctrls.perBankRdBursts::1                69                       # Per bank write bursts
system.mem_ctrls.perBankRdBursts::2                85                       # Per bank write bursts
system.mem_ctrls.perBankRdBursts::3               147                       # Per bank write bursts
system.mem_ctrls.perBankRdBursts::4               114                       # Per bank write bursts
system.mem_ctrls.perBankRdBursts::5                71                       # Per bank write bursts
system.mem_ctrls.perBankRdBursts::6                86                       # Per bank write bursts
system.mem_ctrls.perBankRdBursts::7                80                       # Per bank write bursts
system.mem_ctrls.perBankRdBursts::8               168                       # Per bank write bursts
system.mem_ctrls.perBankRdBursts::9                41                       # Per bank write bursts
system.mem_ctrls.perBankRdBursts::10               42                       # Per bank write bursts
system.mem_ctrls.perBankRdBursts::11               35                       # Per bank write bursts
system.mem_ctrls.perBankRdBursts::12               69                       # Per bank write bursts
system.mem_ctrls.perBankRdBursts::13                2                       # Per bank write bursts
system.mem_ctrls.perBankRdBursts::14                9                       # Per bank write bursts
system.mem_ctrls.perBankRdBursts::15               18                       # Per bank write bursts
system.mem_ctrls.perBankWrBursts::0                20                       # Per bank write bursts
system.mem_ctrls.perBankWrBursts::1                15                       # Per bank write bursts
system.mem_ctrls.perBankWrBursts::2                32                       # Per bank write bursts
system.mem_ctrls.perBankWrBursts::3                24                       # Per bank write bursts
system.mem_ctrls.perBankWrBursts::4                33                       # Per bank write bursts
system.mem_ctrls.perBankWrBursts::5                 6                       # Per bank write bursts
system.mem_ctrls.perBankWrBursts::6                 4                       # Per bank write bursts
system.mem_ctrls.perBankWrBursts::7                16                       # Per bank write bursts
system.mem_ctrls.perBankWrBursts::8                39                       # Per bank write bursts
system.mem_ctrls.perBankWrBursts::9                 6                       # Per bank write bursts
system.mem_ctrls.perBankWrBursts::10                5                       # Per bank write bursts
system.mem_ctrls.perBankWrBursts::11               14                       # Per bank write bursts
system.mem_ctrls.perBankWrBursts::12               30                       # Per bank write bursts
system.mem_ctrls.perBankWrBursts::13                1                       # Per bank write bursts
system.mem_ctrls.perBankWrBursts::14                6                       # Per bank write bursts
system.mem_ctrls.perBankWrBursts::15               11                       # Per bank write bursts
system.mem_ctrls.avgRdQLen                       1.01                       # Average read queue length when enqueuing
system.mem_ctrls.avgWrQLen                      26.98                       # Average write queue length when enqueuing
system.mem_ctrls.totQLat                     12460875                       # Total ticks spent queuing
system.mem_ctrls.totBusLat                    5680000                       # Total ticks spent in databus transfers
system.mem_ctrls.totMemAccLat                33760875                       # Total ticks spent from burst creation until serviced by the DRAM
system.mem_ctrls.avgQLat                     10969.08                       # Average queueing delay per DRAM burst
system.mem_ctrls.avgBusLat                    5000.00                       # Average bus latency per DRAM burst
system.mem_ctrls.avgMemAccLat                29719.08                       # Average memory access latency per DRAM burst
system.mem_ctrls.numRdRetry                         0                       # Number of times read queue was full causing retry
system.mem_ctrls.numWrRetry                         0                       # Number of times write queue was full causing retry
system.mem_ctrls.readRowHits                      848                       # Number of row buffer hits during reads
system.mem_ctrls.writeRowHits                     209                       # Number of row buffer hits during writes
system.mem_ctrls.readRowHitRate                 74.65                       # Row buffer hit rate for reads
system.mem_ctrls.writeRowHitRate                72.32                       # Row buffer hit rate for writes
system.mem_ctrls.readPktSize::0                     0                       # Read request sizes (log2)
system.mem_ctrls.readPktSize::1                     0                       # Read request sizes (log2)
system.mem_ctrls.readPktSize::2                     0                       # Read request sizes (log2)
system.mem_ctrls.readPktSize::3                     0                       # Read request sizes (log2)
system.mem_ctrls.readPktSize::4                     0                       # Read request sizes (log2)
system.mem_ctrls.readPktSize::5                     0                       # Read request sizes (log2)
system.mem_ctrls.readPktSize::6                  1149                       # Read request sizes (log2)
system.mem_ctrls.writePktSize::0                    0                       # Write request sizes (log2)
system.mem_ctrls.writePktSize::1                    0                       # Write request sizes (log2)
system.mem_ctrls.writePktSize::2                    0                       # Write request sizes (log2)
system.mem_ctrls.writePktSize::3                    0                       # Write request sizes (log2)
system.mem_ctrls.writePktSize::4                    0                       # Write request sizes (log2)
system.mem_ctrls.writePktSize::5                    0                       # Write request sizes (log2)
system.mem_ctrls.writePktSize::6                  293                       # Write request sizes (log2)
system.mem_ctrls.rdQLenPdf::0                     786                       # What read queue length does an incoming req see
system.mem_ctrls.rdQLenPdf::1                     283                       # What read queue length does an incoming req see
system.mem_ctrls.rdQLenPdf::2                      55                       # What read queue length does an incoming req see
system.mem_ctrls.rdQLenPdf::3                       8                       # What read queue length does an incoming req see
system.mem_ctrls.rdQLenPdf::4                       3                       # What read queue length does an incoming req see
system.mem_ctrls.rdQLenPdf::5                       1                       # What read queue length does an incoming req see
system.mem_ctrls.rdQLenPdf::6                       0                       # What read queue length does an incoming req see
system.mem_ctrls.rdQLenPdf::7                       0                       # What read queue length does an incoming req see
system.mem_ctrls.rdQLenPdf::8                       0                       # What read queue length does an incoming req see
system.mem_ctrls.rdQLenPdf::9                       0                       # What read queue length does an incoming req see
system.mem_ctrls.rdQLenPdf::10                      0                       # What read queue length does an incoming req see
system.mem_ctrls.rdQLenPdf::11                      0                       # What read queue length does an incoming req see
system.mem_ctrls.rdQLenPdf::12                      0                       # What read queue length does an incoming req see
system.mem_ctrls.rdQLenPdf::13                      0                       # What read queue length does an incoming req see
system.mem_ctrls.rdQLenPdf::14                      0                       # What read queue length does an incoming req see
system.mem_ctrls.rdQLenPdf::15                      0                       # What read queue length does an incoming req see
system.mem_ctrls.rdQLenPdf::16                      0                       # What read queue length does an incoming req see
system.mem_ctrls.rdQLenPdf::17                      0                       # What read queue length does an incoming req see
system.mem_ctrls.rdQLenPdf::18                      0                       # What read queue length does an incoming req see
system.mem_ctrls.rdQLenPdf::19                      0                       # What read queue length does an incoming req see
system.mem_ctrls.rdQLenPdf::20                      0                       # What read queue length does an incoming req see
system.mem_ctrls.rdQLenPdf::21                      0                       # What read queue length does an incoming req see
system.mem_ctrls.rdQLenPdf::22                      0                       # What read queue length does an incoming req see
system.mem_ctrls.rdQLenPdf::23                      0                       # What read queue length does an incoming req see
system.mem_ctrls.rdQLenPdf::24                      0                       # What read queue length does an incoming req see
system.mem_ctrls.rdQLenPdf::25                      0                       # What read queue length does an incoming req see
system.mem_ctrls.rdQLenPdf::26                      0                       # What read queue length does an incoming req see
system.mem_ctrls.rdQLenPdf::27                      0                       # What read queue length does an incoming req see
system.mem_ctrls.rdQLenPdf::28                      0                       # What read queue length does an incoming req see
system.mem_ctrls.rdQLenPdf::29                      0                       # What read queue length does an incoming req see
system.mem_ctrls.rdQLenPdf::30                      0                       # What read queue length does an incoming req see
system.mem_ctrls.rdQLenPdf::31                      0                       # What read queue length does an incoming req see
system.mem_ctrls.wrQLenPdf::0                       1                       # What write queue length does an incoming req see
system.mem_ctrls.wrQLenPdf::1                       1                       # What write queue length does an incoming req see
system.mem_ctrls.wrQLenPdf::2                       1                       # What write queue length does an incoming req see
system.mem_ctrls.wrQLenPdf::3                       1                       # What write queue length does an incoming req see
system.mem_ctrls.wrQLenPdf::4                       1                       # What write queue length does an incoming req see
system.mem_ctrls.wrQLenPdf::5                       1                       # What write queue length does an incoming req see
system.mem_ctrls.wrQLenPdf::6                       1                       # What write queue length does an incoming req see
system.mem_ctrls.wrQLenPdf::7                       1                       # What write queue length does an incoming req see
system.mem_ctrls.wrQLenPdf::8                       1                       # What write queue length does an incoming req see
system.mem_ctrls.wrQLenPdf::9                       1                       # What write queue length does an incoming req see
system.mem_ctrls.wrQLenPdf::10                      1                       # What write queue length does an incoming req see
system.mem_ctrls.wrQLenPdf::11                      1                       # What write queue length does an incoming req see
system.mem_ctrls.wrQLenPdf::12                      1                       # What write queue length does an incoming req see
system.mem_ctrls.wrQLenPdf::13                      1                       # What write queue length does an incoming req see
system.mem_ctrls.wrQLenPdf::14                      1                       # What write queue length does an incoming req see
[...]
system.cpu.itb_walker_cache.blocked_cycles::no_mshrs            0                       # number of cycles access was blocked
system.cpu.itb_walker_cache.blocked_cycles::no_targets            0                       # number of cycles access was blocked
system.cpu.itb_walker_cache.blocked::no_mshrs            0                       # number of cycles access was blocked
system.cpu.itb_walker_cache.blocked::no_targets            0                       # number of cycles access was blocked
system.cpu.itb_walker_cache.avg_blocked_cycles::no_mshrs          nan                       # average number of cycles each access was blocked
system.cpu.itb_walker_cache.avg_blocked_cycles::no_targets          nan                       # average number of cycles each access was blocked
system.cpu.itb_walker_cache.replacements            0                       # number of replacements
system.cpu.itb_walker_cache.tags.pwrStateResidencyTicks::UNDEFINED  27234198125                       # Cumulative time (in ticks) in various power states
system.cpu.itb_walker_cache.tags.tagsinuse            0                       # Cycle average of tags in use
system.cpu.itb_walker_cache.tags.total_refs            0                       # Total number of references to valid blocks.
system.cpu.itb_walker_cache.tags.sampled_refs            0                       # Sample count of references to valid blocks.
system.cpu.itb_walker_cache.tags.avg_refs          nan                       # Average number of references to valid blocks.
system.cpu.itb_walker_cache.tags.warmup_cycle            0                       # Cycle when the warmup percentage was hit.
system.cpu.itb_walker_cache.tags.tag_accesses            0                       # Number of tag accesses
system.cpu.itb_walker_cache.tags.data_accesses            0                       # Number of data accesses
system.cpu.itb.walker.pwrStateResidencyTicks::UNDEFINED  27234198125                       # Cumulative time (in ticks) in various power states
system.cpu.itb.stage2_mmu.stage2_tlb.walker.pwrStateResidencyTicks::UNDEFINED  27234198125                       # Cumulative time (in ticks) in various power states
system.cpu.dtb_walker_cache.pwrStateResidencyTicks::UNDEFINED  27234198125                       # Cumulative time (in ticks) in various power states
system.cpu.dtb_walker_cache.blocked_cycles::no_mshrs            0                       # number of cycles access was blocked
system.cpu.dtb_walker_cache.blocked_cycles::no_targets            0                       # number of cycles access was blocked
system.cpu.dtb_walker_cache.blocked::no_mshrs            0                       # number of cycles access was blocked
system.cpu.dtb_walker_cache.blocked::no_targets            0                       # number of cycles access was blocked
system.cpu.dtb_walker_cache.avg_blocked_cycles::no_mshrs          nan                       # average number of cycles each access was blocked
system.cpu.dtb_walker_cache.avg_blocked_cycles::no_targets          nan                       # average number of cycles each access was blocked
system.cpu.dtb_walker_cache.replacements            0                       # number of replacements
system.cpu.dtb_walker_cache.tags.pwrStateResidencyTicks::UNDEFINED  27234198125                       # Cumulative time (in ticks) in various power states
system.cpu.dtb_walker_cache.tags.tagsinuse            0                       # Cycle average of tags in use
system.cpu.dtb_walker_cache.tags.total_refs            0                       # Total number of references to valid blocks.
system.cpu.dtb_walker_cache.tags.sampled_refs            0                       # Sample count of references to valid blocks.
system.cpu.dtb_walker_cache.tags.avg_refs          nan                       # Average number of references to valid blocks.
system.cpu.dtb_walker_cache.tags.warmup_cycle            0                       # Cycle when the warmup percentage was hit.
system.cpu.dtb_walker_cache.tags.tag_accesses            0                       # Number of tag accesses
system.cpu.dtb_walker_cache.tags.data_accesses            0                       # Number of data accesses
system.cpu.dcache.pwrStateResidencyTicks::UNDEFINED  27234198125                       # Cumulative time (in ticks) in various power states
system.cpu.dcache.demand_hits::.cpu.data     13183747                       # number of demand (read+write) hits
system.cpu.dcache.demand_hits::total         13183747                       # number of demand (read+write) hits
system.cpu.dcache.overall_hits::.cpu.data     13183747                       # number of overall hits
system.cpu.dcache.overall_hits::total        13183747                       # number of overall hits
system.cpu.dcache.demand_misses::.cpu.data         1100                       # number of demand (read+write) misses
system.cpu.dcache.demand_misses::total           1100                       # number of demand (read+write) misses
system.cpu.dcache.overall_misses::.cpu.data         1100                       # number of overall misses
system.cpu.dcache.overall_misses::total          1100                       # number of overall misses
system.cpu.dcache.demand_miss_latency::.cpu.data     74827750                       # number of demand (read+write) miss cycles
system.cpu.dcache.demand_miss_latency::total     74827750                       # number of demand (read+write) miss cycles
system.cpu.dcache.overall_miss_latency::.cpu.data     74827750                       # number of overall miss cycles
system.cpu.dcache.overall_miss_latency::total     74827750                       # number of overall miss cycles
system.cpu.dcache.demand_accesses::.cpu.data     13184847                       # number of demand (read+write) accesses
system.cpu.dcache.demand_accesses::total     13184847                       # number of demand (read+write) accesses
system.cpu.dcache.overall_accesses::.cpu.data     13184847                       # number of overall (read+write) accesses
system.cpu.dcache.overall_accesses::total     13184847                       # number of overall (read+write) accesses
system.cpu.dcache.demand_miss_rate::.cpu.data     0.000083                       # miss rate for demand accesses
system.cpu.dcache.demand_miss_rate::total     0.000083                       # miss rate for demand accesses
system.cpu.dcache.overall_miss_rate::.cpu.data     0.000083                       # miss rate for overall accesses
system.cpu.dcache.overall_miss_rate::total     0.000083                       # miss rate for overall accesses
system.cpu.dcache.demand_avg_miss_latency::.cpu.data 68025.227273                       # average overall miss latency
system.cpu.dcache.demand_avg_miss_latency::total 68025.227273                       # average overall miss latency
system.cpu.dcache.overall_avg_miss_latency::.cpu.data 68025.227273                       # average overall miss latency
system.cpu.dcache.overall_avg_miss_latency::total 68025.227273                       # average overall miss latency
system.cpu.dcache.blocked_cycles::no_mshrs            0                       # number of cycles access was blocked
system.cpu.dcache.blocked_cycles::no_targets         5019                       # number of cycles access was blocked
system.cpu.dcache.blocked::no_mshrs                 0                       # number of cycles access was blocked
system.cpu.dcache.blocked::no_targets              55                       # number of cycles access was blocked
system.cpu.dcache.avg_blocked_cycles::no_mshrs          nan                       # average number of cycles each access was blocked
system.cpu.dcache.avg_blocked_cycles::no_targets    91.254545                       # average number of cycles each access was blocked
system.cpu.dcache.writebacks::.writebacks            8                       # number of writebacks
system.cpu.dcache.writebacks::total                 8                       # number of writebacks
system.cpu.dcache.demand_mshr_hits::.cpu.data          773                       # number of demand (read+write) MSHR hits
system.cpu.dcache.demand_mshr_hits::total          773                       # number of demand (read+write) MSHR hits
system.cpu.dcache.overall_mshr_hits::.cpu.data          773                       # number of overall MSHR hits
system.cpu.dcache.overall_mshr_hits::total          773                       # number of overall MSHR hits
system.cpu.dcache.demand_mshr_misses::.cpu.data          327                       # number of demand (read+write) MSHR misses
system.cpu.dcache.demand_mshr_misses::total          327                       # number of demand (read+write) MSHR misses
system.cpu.dcache.overall_mshr_misses::.cpu.data          327                       # number of overall MSHR misses
system.cpu.dcache.overall_mshr_misses::total          327                       # number of overall MSHR misses
system.cpu.dcache.demand_mshr_miss_latency::.cpu.data     21872250                       # number of demand (read+write) MSHR miss cycles
system.cpu.dcache.demand_mshr_miss_latency::total     21872250                       # number of demand (read+write) MSHR miss cycles
system.cpu.dcache.overall_mshr_miss_latency::.cpu.data     21872250                       # number of overall MSHR miss cycles
system.cpu.dcache.overall_mshr_miss_latency::total     21872250                       # number of overall MSHR miss cycles
system.cpu.dcache.demand_mshr_miss_rate::.cpu.data     0.000025                       # mshr miss rate for demand accesses
system.cpu.dcache.demand_mshr_miss_rate::total     0.000025                       # mshr miss rate for demand accesses
system.cpu.dcache.overall_mshr_miss_rate::.cpu.data     0.000025                       # mshr miss rate for overall accesses
system.cpu.dcache.overall_mshr_miss_rate::total     0.000025                       # mshr miss rate for overall accesses
system.cpu.dcache.demand_avg_mshr_miss_latency::.cpu.data 66887.614679                       # average overall mshr miss latency
system.cpu.dcache.demand_avg_mshr_miss_latency::total 66887.614679                       # average overall mshr miss latency
system.cpu.dcache.overall_avg_mshr_miss_latency::.cpu.data 66887.614679                       # average overall mshr miss latency
system.cpu.dcache.overall_avg_mshr_miss_latency::total 66887.614679                       # average overall mshr miss latency
system.cpu.dcache.replacements                      8                       # number of replacements
system.cpu.dcache.ReadReq_hits::.cpu.data      8324688                       # number of ReadReq hits
system.cpu.dcache.ReadReq_hits::total         8324688                       # number of ReadReq hits
system.cpu.dcache.ReadReq_misses::.cpu.data          485                       # number of ReadReq misses
system.cpu.dcache.ReadReq_misses::total           485                       # number of ReadReq misses
system.cpu.dcache.ReadReq_miss_latency::.cpu.data     34902375                       # number of ReadReq miss cycles
system.cpu.dcache.ReadReq_miss_latency::total     34902375                       # number of ReadReq miss cycles
system.cpu.dcache.ReadReq_accesses::.cpu.data      8325173                       # number of ReadReq accesses(hits+misses)
system.cpu.dcache.ReadReq_accesses::total      8325173                       # number of ReadReq accesses(hits+misses)
system.cpu.dcache.ReadReq_miss_rate::.cpu.data     0.000058                       # miss rate for ReadReq accesses
system.cpu.dcache.ReadReq_miss_rate::total     0.000058                       # miss rate for ReadReq accesses
system.cpu.dcache.ReadReq_avg_miss_latency::.cpu.data 71963.659794                       # average ReadReq miss latency
system.cpu.dcache.ReadReq_avg_miss_latency::total 71963.659794                       # average ReadReq miss latency
system.cpu.dcache.ReadReq_mshr_hits::.cpu.data          289                       # number of ReadReq MSHR hits
system.cpu.dcache.ReadReq_mshr_hits::total          289                       # number of ReadReq MSHR hits
system.cpu.dcache.ReadReq_mshr_misses::.cpu.data          196                       # number of ReadReq MSHR misses
system.cpu.dcache.ReadReq_mshr_misses::total          196                       # number of ReadReq MSHR misses
system.cpu.dcache.ReadReq_mshr_miss_latency::.cpu.data     13430250                       # number of ReadReq MSHR miss cycles
system.cpu.dcache.ReadReq_mshr_miss_latency::total     13430250                       # number of ReadReq MSHR miss cycles
system.cpu.dcache.ReadReq_mshr_miss_rate::.cpu.data     0.000024                       # mshr miss rate for ReadReq accesses
system.cpu.dcache.ReadReq_mshr_miss_rate::total     0.000024                       # mshr miss rate for ReadReq accesses
system.cpu.dcache.ReadReq_avg_mshr_miss_latency::.cpu.data 68521.683673                       # average ReadReq mshr miss latency
system.cpu.dcache.ReadReq_avg_mshr_miss_latency::total 68521.683673                       # average ReadReq mshr miss latency
system.cpu.dcache.WriteReq_hits::.cpu.data      4859059                       # number of WriteReq hits
system.cpu.dcache.WriteReq_hits::total        4859059                       # number of WriteReq hits
system.cpu.dcache.WriteReq_misses::.cpu.data          615                       # number of WriteReq misses
system.cpu.dcache.WriteReq_misses::total          615                       # number of WriteReq misses
system.cpu.dcache.WriteReq_miss_latency::.cpu.data     39925375                       # number of WriteReq miss cycles
system.cpu.dcache.WriteReq_miss_latency::total     39925375                       # number of WriteReq miss cycles
system.cpu.dcache.WriteReq_accesses::.cpu.data      4859674                       # number of WriteReq accesses(hits+misses)
system.cpu.dcache.WriteReq_accesses::total      4859674                       # number of WriteReq accesses(hits+misses)
system.cpu.dcache.WriteReq_miss_rate::.cpu.data     0.000127                       # miss rate for WriteReq accesses
system.cpu.dcache.WriteReq_miss_rate::total     0.000127                       # miss rate for WriteReq accesses
system.cpu.dcache.WriteReq_avg_miss_latency::.cpu.data 64919.308943                       # average WriteReq miss latency
system.cpu.dcache.WriteReq_avg_miss_latency::total 64919.308943                       # average WriteReq miss latency
system.cpu.dcache.WriteReq_mshr_hits::.cpu.data          484                       # number of WriteReq MSHR hits
system.cpu.dcache.WriteReq_mshr_hits::total          484                       # number of WriteReq MSHR hits
system.cpu.dcache.WriteReq_mshr_misses::.cpu.data          131                       # number of WriteReq MSHR misses
system.cpu.dcache.WriteReq_mshr_misses::total          131                       # number of WriteReq MSHR misses
system.cpu.dcache.WriteReq_mshr_miss_latency::.cpu.data      8442000                       # number of WriteReq MSHR miss cycles
system.cpu.dcache.WriteReq_mshr_miss_latency::total      8442000                       # number of WriteReq MSHR miss cycles
system.cpu.dcache.WriteReq_mshr_miss_rate::.cpu.data     0.000027                       # mshr miss rate for WriteReq accesses
system.cpu.dcache.WriteReq_mshr_miss_rate::total     0.000027                       # mshr miss rate for WriteReq accesses
system.cpu.dcache.WriteReq_avg_mshr_miss_latency::.cpu.data 64442.748092                       # average WriteReq mshr miss latency
system.cpu.dcache.WriteReq_avg_mshr_miss_latency::total 64442.748092                       # average WriteReq mshr miss latency
system.cpu.dcache.LoadLockedReq_hits::.cpu.data           49                       # number of LoadLockedReq hits
system.cpu.dcache.LoadLockedReq_hits::total           49                       # number of LoadLockedReq hits
system.cpu.dcache.LoadLockedReq_misses::.cpu.data            2                       # number of LoadLockedReq misses
system.cpu.dcache.LoadLockedReq_misses::total            2                       # number of LoadLockedReq misses
system.cpu.dcache.LoadLockedReq_miss_latency::.cpu.data        98125                       # number of LoadLockedReq miss cycles
system.cpu.dcache.LoadLockedReq_miss_latency::total        98125                       # number of LoadLockedReq miss cycles
system.cpu.dcache.LoadLockedReq_accesses::.cpu.data           51                       # number of LoadLockedReq accesses(hits+misses)
system.cpu.dcache.LoadLockedReq_accesses::total           51                       # number of LoadLockedReq accesses(hits+misses)
system.cpu.dcache.LoadLockedReq_miss_rate::.cpu.data     0.039216                       # miss rate for LoadLockedReq accesses
system.cpu.dcache.LoadLockedReq_miss_rate::total     0.039216                       # miss rate for LoadLockedReq accesses
system.cpu.dcache.LoadLockedReq_avg_miss_latency::.cpu.data 49062.500000                       # average LoadLockedReq miss latency
system.cpu.dcache.LoadLockedReq_avg_miss_latency::total 49062.500000                       # average LoadLockedReq miss latency
system.cpu.dcache.LoadLockedReq_mshr_hits::.cpu.data            2                       # number of LoadLockedReq MSHR hits
system.cpu.dcache.LoadLockedReq_mshr_hits::total            2                       # number of LoadLockedReq MSHR hits
system.cpu.dcache.StoreCondReq_hits::.cpu.data           51                       # number of StoreCondReq hits
system.cpu.dcache.StoreCondReq_hits::total           51                       # number of StoreCondReq hits
system.cpu.dcache.StoreCondReq_accesses::.cpu.data           51                       # number of StoreCondReq accesses(hits+misses)
system.cpu.dcache.StoreCondReq_accesses::total           51                       # number of StoreCondReq accesses(hits+misses)
system.cpu.dcache.tags.pwrStateResidencyTicks::UNDEFINED  27234198125                       # Cumulative time (in ticks) in various power states
system.cpu.dcache.tags.tagsinuse           260.859432                       # Cycle average of tags in use
system.cpu.dcache.tags.total_refs            13184174                       # Total number of references to valid blocks.
system.cpu.dcache.tags.sampled_refs               327                       # Sample count of references to valid blocks.
system.cpu.dcache.tags.avg_refs          40318.574924                       # Average number of references to valid blocks.
system.cpu.dcache.tags.warmup_cycle            149000                       # Cycle when the warmup percentage was hit.
system.cpu.dcache.tags.occ_blocks::.cpu.data   260.859432                       # Average occupied blocks per requestor
system.cpu.dcache.tags.occ_percent::.cpu.data     0.509491                       # Average percentage of cache occupancy
system.cpu.dcache.tags.occ_percent::total     0.509491                       # Average percentage of cache occupancy
system.cpu.dcache.tags.occ_task_id_blocks::1024          319                       # Occupied blocks per task id
system.cpu.dcache.tags.age_task_id_blocks_1024::0           26                       # Occupied blocks per task id
system.cpu.dcache.tags.age_task_id_blocks_1024::1           40                       # Occupied blocks per task id
system.cpu.dcache.tags.age_task_id_blocks_1024::4          253                       # Occupied blocks per task id
system.cpu.dcache.tags.occ_task_id_percent::1024     0.623047                       # Percentage of cache occupancy per task id
system.cpu.dcache.tags.tag_accesses          52740123                       # Number of tag accesses
system.cpu.dcache.tags.data_accesses         52740123                       # Number of data accesses

---------- End Simulation Statistics   ----------
