
---------- Begin Simulation Statistics ----------
final_tick                                  690650000                       # Number of ticks from beginning of simulation (restored from checkpoints and never reset)
host_inst_rate                                 230003                       # Simulator instruction rate (inst/s)
host_mem_usage                                 699936                       # Number of bytes of host memory used
host_op_rate                                   243993                       # Simulator op (including micro ops) rate (op/s)
host_seconds                                     8.22                       # Real time elapsed on the host
host_tick_rate                               84053267                       # Simulator tick rate (ticks/s)
sim_freq                                 1000000000000                       # Frequency of simulated ticks
sim_insts                                     1889860                       # Number of instructions simulated
sim_ops                                       2004837                       # Number of ops (including micro ops) simulated
sim_seconds                                  0.000691                       # Number of seconds simulated
sim_ticks                                   690650000                       # Number of ticks simulated
system.cpu0.branchPred.BTBCorrect                   0                       # Number of correct BTB predictions (this stat may not work properly.
system.cpu0.branchPred.BTBHitPct            87.768121                       # BTB Hit Percentage
system.cpu0.branchPred.BTBHits                  75944                       # Number of BTB hits
system.cpu0.branchPred.BTBLookups               86528                       # Number of BTB lookups
system.cpu0.branchPred.RASInCorrect               529                       # Number of incorrect RAS predictions.
system.cpu0.branchPred.condIncorrect             2222                       # Number of conditional branches incorrect
system.cpu0.branchPred.condPredicted           146470                       # Number of conditional branches predicted
system.cpu0.branchPred.indirectHits              2582                       # Number of indirect target hits.
system.cpu0.branchPred.indirectLookups           3727                       # Number of indirect predictor lookups.
system.cpu0.branchPred.indirectMisses            1145                       # Number of indirect misses.
system.cpu0.branchPred.lookups                 188052                       # Number of BP lookups
system.cpu0.branchPred.usedRAS                  12140                       # Number of times the RAS was used to get a target.
system.cpu0.branchPredindirectMispredicted           89                       # Number of mispredicted indirect branches.
system.cpu0.committedInsts                     889860                       # Number of instructions committed
system.cpu0.committedOps                       980843                       # Number of ops (including micro ops) committed
system.cpu0.cpi                              1.552267                       # CPI: cycles per instruction
system.cpu0.discardedOps                        12314                       # Number of ops (including micro ops) which were discarded before commit
system.cpu0.dtb.accesses                            0                       # DTB accesses
system.cpu0.dtb.align_faults                        0                       # Number of TLB faults due to alignment restrictions
system.cpu0.dtb.domain_faults                       0                       # Number of TLB faults due to domain restrictions
system.cpu0.dtb.flush_entries                       0                       # Number of entries that have been flushed from TLB
system.cpu0.dtb.flush_tlb                           0                       # Number of times complete TLB was flushed
system.cpu0.dtb.flush_tlb_asid                      0                       # Number of times TLB was flushed by ASID
system.cpu0.dtb.flush_tlb_mva                       0                       # Number of times TLB was flushed by MVA
system.cpu0.dtb.flush_tlb_mva_asid                  0                       # Number of times TLB was flushed by MVA & ASID
system.cpu0.dtb.hits                                0                       # DTB hits
system.cpu0.dtb.inst_accesses                       0                       # ITB inst accesses
system.cpu0.dtb.inst_hits                           0                       # ITB inst hits
system.cpu0.dtb.inst_misses                         0                       # ITB inst misses
system.cpu0.dtb.misses                              0                       # DTB misses
system.cpu0.dtb.perms_faults                        0                       # Number of TLB faults due to permissions restrictions
system.cpu0.dtb.prefetch_faults                     0                       # Number of TLB faults due to prefetch
system.cpu0.dtb.read_accesses                       0                       # DTB read accesses
system.cpu0.dtb.read_hits                           0                       # DTB read hits
system.cpu0.dtb.read_misses                         0                       # DTB read misses
system.cpu0.dtb.stage2_mmu.stage2_tlb.accesses            0                       # DTB accesses
system.cpu0.dtb.stage2_mmu.stage2_tlb.align_faults            0                       # Number of TLB faults due to alignment restrictions
system.cpu0.dtb.stage2_mmu.stage2_tlb.domain_faults            0                       # Number of TLB faults due to domain restrictions
system.cpu0.dtb.stage2_mmu.stage2_tlb.flush_entries            0                       # Number of entries that have been flushed from TLB
system.cpu0.dtb.stage2_mmu.stage2_tlb.flush_tlb            0                       # Number of times complete TLB was flushed
system.cpu0.dtb.stage2_mmu.stage2_tlb.flush_tlb_asid            0                       # Number of times TLB was flushed by ASID
system.cpu0.dtb.stage2_mmu.stage2_tlb.flush_tlb_mva            0                       # Number of times TLB was flushed by MVA
system.cpu0.dtb.stage2_mmu.stage2_tlb.flush_tlb_mva_asid            0                       # Number of times TLB was flushed by MVA & ASID
system.cpu0.dtb.stage2_mmu.stage2_tlb.hits            0                       # DTB hits
system.cpu0.dtb.stage2_mmu.stage2_tlb.inst_accesses            0                       # ITB inst accesses
system.cpu0.dtb.stage2_mmu.stage2_tlb.inst_hits            0                       # ITB inst hits
system.cpu0.dtb.stage2_mmu.stage2_tlb.inst_misses            0                       # ITB inst misses
system.cpu0.dtb.stage2_mmu.stage2_tlb.misses            0                       # DTB misses
system.cpu0.dtb.stage2_mmu.stage2_tlb.perms_faults            0                       # Number of TLB faults due to permissions restrictions
system.cpu0.dtb.stage2_mmu.stage2_tlb.prefetch_faults            0                       # Number of TLB faults due to prefetch
system.cpu0.dtb.stage2_mmu.stage2_tlb.read_accesses            0                       # DTB read accesses
system.cpu0.dtb.stage2_mmu.stage2_tlb.read_hits            0                       # DTB read hits
system.cpu0.dtb.stage2_mmu.stage2_tlb.read_misses            0                       # DTB read misses
system.cpu0.dtb.stage2_mmu.stage2_tlb.walker.walkRequestOrigin_Requested::Data            0                       # Table walker requests started/completed, data/inst
system.cpu0.dtb.stage2_mmu.stage2_tlb.walker.walkRequestOrigin_Requested::Inst            0                       # Table walker requests started/completed, data/inst
system.cpu0.dtb.stage2_mmu.stage2_tlb.walker.walkRequestOrigin_Requested::total            0                       # Table walker requests started/completed, data/inst
system.cpu0.dtb.stage2_mmu.stage2_tlb.walker.walkRequestOrigin_Completed::Data            0                       # Table walker requests started/completed, data/inst
system.cpu0.dtb.stage2_mmu.stage2_tlb.walker.walkRequestOrigin_Completed::Inst            0                       # Table walker requests started/completed, data/inst
system.cpu0.dtb.stage2_mmu.stage2_tlb.walker.walkRequestOrigin_Completed::total            0                       # Table walker requests started/completed, data/inst
system.cpu0.dtb.stage2_mmu.stage2_tlb.walker.walkRequestOrigin::total            0                       # Table walker requests started/completed, data/inst
system.cpu0.dtb.stage2_mmu.stage2_tlb.walker.walks            0                       # Table walker walks requested
system.cpu0.dtb.stage2_mmu.stage2_tlb.write_accesses            0                       # DTB write accesses
system.cpu0.dtb.stage2_mmu.stage2_tlb.write_hits            0                       # DTB write hits
system.cpu0.dtb.stage2_mmu.stage2_tlb.write_misses            0                       # DTB write misses
system.cpu0.dtb.walker.walkRequestOrigin_Requested::Data            0                       # Table walker requests started/completed, data/inst
system.cpu0.dtb.walker.walkRequestOrigin_Requested::Inst            0                       # Table walker requests started/completed, data/inst
system.cpu0.dtb.walker.walkRequestOrigin_Requested::total            0                       # Table walker requests started/completed, data/inst
system.cpu0.dtb.walker.walkRequestOrigin_Completed::Data            0                       # Table walker requests started/completed, data/inst
system.cpu0.dtb.walker.walkRequestOrigin_Completed::Inst            0                       # Table walker requests started/completed, data/inst
system.cpu0.dtb.walker.walkRequestOrigin_Completed::total            0                       # Table walker requests started/completed, data/inst
system.cpu0.dtb.walker.walkRequestOrigin::total            0                       # Table walker requests started/completed, data/inst
system.cpu0.dtb.walker.walks                        0                       # Table walker walks requested
system.cpu0.dtb.write_accesses                      0                       # DTB write accesses
system.cpu0.dtb.write_hits                          0                       # DTB write hits
system.cpu0.dtb.write_misses                        0                       # DTB write misses
system.cpu0.fetch2.amo_instructions                 0                       # Number of memory atomic instructions successfully decoded
system.cpu0.fetch2.fp_instructions                  0                       # Number of floating point instructions successfully decoded
system.cpu0.fetch2.int_instructions            428264                       # Number of integer instructions successfully decoded
system.cpu0.fetch2.load_instructions           164968                       # Number of memory load instructions successfully decoded
system.cpu0.fetch2.store_instructions          112796                       # Number of memory store instructions successfully decoded
system.cpu0.fetch2.vec_instructions                 0                       # Number of SIMD instructions successfully decoded
system.cpu0.idleCycles                         344331                       # Total number of cycles that the object has spent stopped
system.cpu0.ipc                              0.644219                       # IPC: instructions per cycle
system.cpu0.itb.accesses                            0                       # DTB accesses
system.cpu0.itb.align_faults                        0                       # Number of TLB faults due to alignment restrictions
system.cpu0.itb.domain_faults                       0                       # Number of TLB faults due to domain restrictions
system.cpu0.itb.flush_entries                       0                       # Number of entries that have been flushed from TLB
system.cpu0.itb.flush_tlb                           0                       # Number of times complete TLB was flushed
system.cpu0.itb.flush_tlb_asid                      0                       # Number of times TLB was flushed by ASID
system.cpu0.itb.flush_tlb_mva                       0                       # Number of times TLB was flushed by MVA
system.cpu0.itb.flush_tlb_mva_asid                  0                       # Number of times TLB was flushed by MVA & ASID
system.cpu0.itb.hits                                0                       # DTB hits
system.cpu0.itb.inst_accesses                       0                       # ITB inst accesses
system.cpu0.itb.inst_hits                           0                       # ITB inst hits
system.cpu0.itb.inst_misses                         0                       # ITB inst misses
system.cpu0.itb.misses                              0                       # DTB misses
system.cpu0.itb.perms_faults                        0                       # Number of TLB faults due to permissions restrictions
system.cpu0.itb.prefetch_faults                     0                       # Number of TLB faults due to prefetch
system.cpu0.itb.read_accesses                       0                       # DTB read accesses
system.cpu0.itb.read_hits                           0                       # DTB read hits
system.cpu0.itb.read_misses                         0                       # DTB read misses
system.cpu0.itb.stage2_mmu.stage2_tlb.accesses            0                       # DTB accesses
system.cpu0.itb.stage2_mmu.stage2_tlb.align_faults            0                       # Number of TLB faults due to alignment restrictions
system.cpu0.itb.stage2_mmu.stage2_tlb.domain_faults            0                       # Number of TLB faults due to domain restrictions
system.cpu0.itb.stage2_mmu.stage2_tlb.flush_entries            0                       # Number of entries that have been flushed from TLB
system.cpu0.itb.stage2_mmu.stage2_tlb.flush_tlb            0                       # Number of times complete TLB was flushed
system.cpu0.itb.stage2_mmu.stage2_tlb.flush_tlb_asid            0                       # Number of times TLB was flushed by ASID
system.cpu0.itb.stage2_mmu.stage2_tlb.flush_tlb_mva            0                       # Number of times TLB was flushed by MVA
system.cpu0.itb.stage2_mmu.stage2_tlb.flush_tlb_mva_asid            0                       # Number of times TLB was flushed by MVA & ASID
system.cpu0.itb.stage2_mmu.stage2_tlb.hits            0                       # DTB hits
system.cpu0.itb.stage2_mmu.stage2_tlb.inst_accesses            0                       # ITB inst accesses
system.cpu0.itb.stage2_mmu.stage2_tlb.inst_hits            0                       # ITB inst hits
system.cpu0.itb.stage2_mmu.stage2_tlb.inst_misses            0                       # ITB inst misses
system.cpu0.itb.stage2_mmu.stage2_tlb.misses            0                       # DTB misses
system.cpu0.itb.stage2_mmu.stage2_tlb.perms_faults            0                       # Number of TLB faults due to permissions restrictions
system.cpu0.itb.stage2_mmu.stage2_tlb.prefetch_faults            0                       # Number of TLB faults due to prefetch
system.cpu0.itb.stage2_mmu.stage2_tlb.read_accesses            0                       # DTB read accesses
system.cpu0.itb.stage2_mmu.stage2_tlb.read_hits            0                       # DTB read hits
system.cpu0.itb.stage2_mmu.stage2_tlb.read_misses            0                       # DTB read misses
system.cpu0.itb.stage2_mmu.stage2_tlb.walker.walkRequestOrigin_Requested::Data            0                       # Table walker requests started/completed, data/inst
system.cpu0.itb.stage2_mmu.stage2_tlb.walker.walkRequestOrigin_Requested::Inst            0                       # Table walker requests started/completed, data/inst
system.cpu0.itb.stage2_mmu.stage2_tlb.walker.walkRequestOrigin_Requested::total            0                       # Table walker requests started/completed, data/inst
system.cpu0.itb.stage2_mmu.stage2_tlb.walker.walkRequestOrigin_Completed::Data            0                       # Table walker requests started/completed, data/inst
system.cpu0.itb.stage2_mmu.stage2_tlb.walker.walkRequestOrigin_Completed::Inst            0                       # Table walker requests started/completed, data/inst
system.cpu0.itb.stage2_mmu.stage2_tlb.walker.walkRequestOrigin_Completed::total            0                       # Table walker requests started/completed, data/inst
system.cpu0.itb.stage2_mmu.stage2_tlb.walker.walkRequestOrigin::total            0                       # Table walker requests started/completed, data/inst
system.cpu0.itb.stage2_mmu.stage2_tlb.walker.walks            0                       # Table walker walks requested
system.cpu0.itb.stage2_mmu.stage2_tlb.write_accesses            0                       # DTB write accesses
system.cpu0.itb.stage2_mmu.stage2_tlb.write_hits            0                       # DTB write hits
system.cpu0.itb.stage2_mmu.stage2_tlb.write_misses            0                       # DTB write misses
system.cpu0.itb.walker.walkRequestOrigin_Requested::Data            0                       # Table walker requests started/completed, data/inst
system.cpu0.itb.walker.walkRequestOrigin_Requested::Inst            0                       # Table walker requests started/completed, data/inst
system.cpu0.itb.walker.walkRequestOrigin_Requested::total            0                       # Table walker requests started/completed, data/inst
system.cpu0.itb.walker.walkRequestOrigin_Completed::Data            0                       # Table walker requests started/completed, data/inst
system.cpu0.itb.walker.walkRequestOrigin_Completed::Inst            0                       # Table walker requests started/completed, data/inst
system.cpu0.itb.walker.walkRequestOrigin_Completed::total            0                       # Table walker requests started/completed, data/inst
system.cpu0.itb.walker.walkRequestOrigin::total            0                       # Table walker requests started/completed, data/inst
system.cpu0.itb.walker.walks                        0                       # Table walker walks requested
system.cpu0.itb.write_accesses                      0                       # DTB write accesses
system.cpu0.itb.write_hits                          0                       # DTB write hits
system.cpu0.itb.write_misses                        0                       # DTB write misses
system.cpu0.numCycles                         1381300                       # number of cpu cycles simulated
system.cpu0.numFetchSuspends                        0                       # Number of times Execute suspended instruction fetching
system.cpu0.numWorkItemsCompleted                   0                       # number of work items this cpu completed
system.cpu0.numWorkItemsStarted                     0                       # number of work items this cpu started
system.cpu0.op_class_0::No_OpClass                  0      0.00%      0.00% # Class of committed instruction
system.cpu0.op_class_0::IntAlu                 626511     63.87%     63.87% # Class of committed instruction
system.cpu0.op_class_0::IntMult                  3083      0.31%     64.19% # Class of committed instruction
system.cpu0.op_class_0::IntDiv                      0      0.00%     64.19% # Class of committed instruction
system.cpu0.op_class_0::FloatAdd                    0      0.00%     64.19% # Class of committed instruction
system.cpu0.op_class_0::FloatCmp                    0      0.00%     64.19% # Class of committed instruction
system.cpu0.op_class_0::FloatCvt                    0      0.00%     64.19% # Class of committed instruction
system.cpu0.op_class_0::FloatMult                   0      0.00%     64.19% # Class of committed instruction
system.cpu0.op_class_0::FloatMultAcc                0      0.00%     64.19% # Class of committed instruction
system.cpu0.op_class_0::FloatDiv                    0      0.00%     64.19% # Class of committed instruction
system.cpu0.op_class_0::FloatMisc                   0      0.00%     64.19% # Class of committed instruction
system.cpu0.op_class_0::FloatSqrt                   0      0.00%     64.19% # Class of committed instruction
system.cpu0.op_class_0::SimdAdd                     0      0.00%     64.19% # Class of committed instruction
system.cpu0.op_class_0::SimdAddAcc                  0      0.00%     64.19% # Class of committed instruction
system.cpu0.op_class_0::SimdAlu                     0      0.00%     64.19% # Class of committed instruction
system.cpu0.op_class_0::SimdCmp                     0      0.00%     64.19% # Class of committed instruction
system.cpu0.op_class_0::SimdCvt                     0      0.00%     64.19% # Class of committed instruction
system.cpu0.op_class_0::SimdMisc                    0      0.00%     64.19% # Class of committed instruction
system.cpu0.op_class_0::SimdMult                    0      0.00%     64.19% # Class of committed instruction
system.cpu0.op_class_0::SimdMultAcc                 0      0.00%     64.19% # Class of committed instruction
system.cpu0.op_class_0::SimdShift                   0      0.00%     64.19% # Class of committed instruction
system.cpu0.op_class_0::SimdShiftAcc                0      0.00%     64.19% # Class of committed instruction
system.cpu0.op_class_0::SimdDiv                     0      0.00%     64.19% # Class of committed instruction
system.cpu0.op_class_0::SimdSqrt                    0      0.00%     64.19% # Class of committed instruction
system.cpu0.op_class_0::SimdFloatAdd                0      0.00%     64.19% # Class of committed instruction
system.cpu0.op_class_0::SimdFloatAlu                0      0.00%     64.19% # Class of committed instruction
system.cpu0.op_class_0::SimdFloatCmp                0      0.00%     64.19% # Class of committed instruction
system.cpu0.op_class_0::SimdFloatCvt                0      0.00%     64.19% # Class of committed instruction
system.cpu0.op_class_0::SimdFloatDiv                0      0.00%     64.19% # Class of committed instruction
system.cpu0.op_class_0::SimdFloatMisc               0      0.00%     64.19% # Class of committed instruction
system.cpu0.op_class_0::SimdFloatMult               0      0.00%     64.19% # Class of committed instruction
system.cpu0.op_class_0::SimdFloatMultAcc            0      0.00%     64.19% # Class of committed instruction
system.cpu0.op_class_0::SimdFloatSqrt               0      0.00%     64.19% # Class of committed instruction
system.cpu0.op_class_0::SimdReduceAdd               0      0.00%     64.19% # Class of committed instruction
system.cpu0.op_class_0::SimdReduceAlu               0      0.00%     64.19% # Class of committed instruction
system.cpu0.op_class_0::SimdReduceCmp               0      0.00%     64.19% # Class of committed instruction
system.cpu0.op_class_0::SimdFloatReduceAdd            0      0.00%     64.19% # Class of committed instruction
system.cpu0.op_class_0::SimdFloatReduceCmp            0      0.00%     64.19% # Class of committed instruction
system.cpu0.op_class_0::SimdAes                     0      0.00%     64.19% # Class of committed instruction
system.cpu0.op_class_0::SimdAesMix                  0      0.00%     64.19% # Class of committed instruction
system.cpu0.op_class_0::SimdSha1Hash                0      0.00%     64.19% # Class of committed instruction
system.cpu0.op_class_0::SimdSha1Hash2               0      0.00%     64.19% # Class of committed instruction
system.cpu0.op_class_0::SimdSha256Hash              0      0.00%     64.19% # Class of committed instruction
system.cpu0.op_class_0::SimdSha256Hash2             0      0.00%     64.19% # Class of committed instruction
system.cpu0.op_class_0::SimdShaSigma2               0      0.00%     64.19% # Class of committed instruction
system.cpu0.op_class_0::SimdShaSigma3               0      0.00%     64.19% # Class of committed instruction
system.cpu0.op_class_0::SimdPredAlu                 0      0.00%     64.19% # Class of committed instruction
system.cpu0.op_class_0::MemRead                193039     19.68%     83.87% # Class of committed instruction
system.cpu0.op_class_0::MemWrite               158210     16.13%    100.00% # Class of committed instruction
system.cpu0.op_class_0::FloatMemRead                0      0.00%    100.00% # Class of committed instruction
system.cpu0.op_class_0::FloatMemWrite               0      0.00%    100.00% # Class of committed instruction
system.cpu0.op_class_0::IprAccess                   0      0.00%    100.00% # Class of committed instruction
system.cpu0.op_class_0::InstPrefetch                0      0.00%    100.00% # Class of committed instruction
system.cpu0.op_class_0::total                  980843                       # Class of committed instruction
system.cpu0.tickCycles                        1036969                       # Number of cycles that the object actually ticked
system.cpu0.workload.numSyscalls                   23                       # Number of system calls
system.cpu1.branchPred.BTBCorrect                   0                       # Number of correct BTB predictions (this stat may not work properly.
system.cpu1.branchPred.BTBHitPct            92.319649                       # BTB Hit Percentage
system.cpu1.branchPred.BTBHits                  57613                       # Number of BTB hits
system.cpu1.branchPred.BTBLookups               62406                       # Number of BTB lookups
system.cpu1.branchPred.RASInCorrect                29                       # Number of incorrect RAS predictions.
system.cpu1.branchPred.condIncorrect             1534                       # Number of conditional branches incorrect
system.cpu1.branchPred.condPredicted            31679                       # Number of conditional branches predicted
system.cpu1.branchPred.indirectHits              2705                       # Number of indirect target hits.
system.cpu1.branchPred.indirectLookups           2873                       # Number of indirect predictor lookups.
system.cpu1.branchPred.indirectMisses             168                       # Number of indirect misses.
system.cpu1.branchPred.lookups                  93345                       # Number of BP lookups
system.cpu1.branchPred.usedRAS                  30617                       # Number of times the RAS was used to get a target.
system.cpu1.branchPredindirectMispredicted          854                       # Number of mispredicted indirect branches.
system.cpu1.committedInsts                    1000000                       # Number of instructions committed
system.cpu1.committedOps                      1023994                       # Number of ops (including micro ops) committed
system.cpu1.cpi                              1.381300                       # CPI: cycles per instruction
system.cpu1.discardedOps                         6138                       # Number of ops (including micro ops) which were discarded before commit
system.cpu1.dtb.accesses                            0                       # DTB accesses
system.cpu1.dtb.align_faults                        0                       # Number of TLB faults due to alignment restrictions
system.cpu1.dtb.domain_faults                       0                       # Number of TLB faults due to domain restrictions
system.cpu1.dtb.flush_entries                       0                       # Number of entries that have been flushed from TLB
system.cpu1.dtb.flush_tlb                           0                       # Number of times complete TLB was flushed
system.cpu1.dtb.flush_tlb_asid                      0                       # Number of times TLB was flushed by ASID
system.cpu1.dtb.flush_tlb_mva                       0                       # Number of times TLB was flushed by MVA
system.cpu1.dtb.flush_tlb_mva_asid                  0                       # Number of times TLB was flushed by MVA & ASID
system.cpu1.dtb.hits                                0                       # DTB hits
system.cpu1.dtb.inst_accesses                       0                       # ITB inst accesses
system.cpu1.dtb.inst_hits                           0                       # ITB inst hits
system.cpu1.dtb.inst_misses                         0                       # ITB inst misses
system.cpu1.dtb.misses                              0                       # DTB misses
system.cpu1.dtb.perms_faults                        0                       # Number of TLB faults due to permissions restrictions
system.cpu1.dtb.prefetch_faults                     0                       # Number of TLB faults due to prefetch
system.cpu1.dtb.read_accesses                       0                       # DTB read accesses
system.cpu1.dtb.read_hits                           0                       # DTB read hits
system.cpu1.dtb.read_misses                         0                       # DTB read misses
system.cpu1.dtb.stage2_mmu.stage2_tlb.accesses            0                       # DTB accesses
system.cpu1.dtb.stage2_mmu.stage2_tlb.align_faults            0                       # Number of TLB faults due to alignment restrictions
system.cpu1.dtb.stage2_mmu.stage2_tlb.domain_faults            0                       # Number of TLB faults due to domain restrictions
system.cpu1.dtb.stage2_mmu.stage2_tlb.flush_entries            0                       # Number of entries that have been flushed from TLB
system.cpu1.dtb.stage2_mmu.stage2_tlb.flush_tlb            0                       # Number of times complete TLB was flushed
system.cpu1.dtb.stage2_mmu.stage2_tlb.flush_tlb_asid            0                       # Number of times TLB was flushed by ASID
system.cpu1.dtb.stage2_mmu.stage2_tlb.flush_tlb_mva            0                       # Number of times TLB was flushed by MVA
system.cpu1.dtb.stage2_mmu.stage2_tlb.flush_tlb_mva_asid            0                       # Number of times TLB was flushed by MVA & ASID
system.cpu1.dtb.stage2_mmu.stage2_tlb.hits            0                       # DTB hits
system.cpu1.dtb.stage2_mmu.stage2_tlb.inst_accesses            0                       # ITB inst accesses
system.cpu1.dtb.stage2_mmu.stage2_tlb.inst_hits            0                       # ITB inst hits
system.cpu1.dtb.stage2_mmu.stage2_tlb.inst_misses            0                       # ITB inst misses
system.cpu1.dtb.stage2_mmu.stage2_tlb.misses            0                       # DTB misses
system.cpu1.dtb.stage2_mmu.stage2_tlb.perms_faults            0                       # Number of TLB faults due to permissions restrictions
system.cpu1.dtb.stage2_mmu.stage2_tlb.prefetch_faults            0                       # Number of TLB faults due to prefetch
system.cpu1.dtb.stage2_mmu.stage2_tlb.read_accesses            0                       # DTB read accesses
system.cpu1.dtb.stage2_mmu.stage2_tlb.read_hits            0                       # DTB read hits
system.cpu1.dtb.stage2_mmu.stage2_tlb.read_misses            0                       # DTB read misses
system.cpu1.dtb.stage2_mmu.stage2_tlb.walker.walkRequestOrigin_Requested::Data            0                       # Table walker requests started/completed, data/inst
system.cpu1.dtb.stage2_mmu.stage2_tlb.walker.walkRequestOrigin_Requested::Inst            0                       # Table walker requests started/completed, data/inst
system.cpu1.dtb.stage2_mmu.stage2_tlb.walker.walkRequestOrigin_Requested::total            0                       # Table walker requests started/completed, data/inst
system.cpu1.dtb.stage2_mmu.stage2_tlb.walker.walkRequestOrigin_Completed::Data            0                       # Table walker requests started/completed, data/inst
system.cpu1.dtb.stage2_mmu.stage2_tlb.walker.walkRequestOrigin_Completed::Inst            0                       # Table walker requests started/completed, data/inst
system.cpu1.dtb.stage2_mmu.stage2_tlb.walker.walkRequestOrigin_Completed::total            0                       # Table walker requests started/completed, data/inst
system.cpu1.dtb.stage2_mmu.stage2_tlb.walker.walkRequestOrigin::total            0                       # Table walker requests started/completed, data/inst
system.cpu1.dtb.stage2_mmu.stage2_tlb.walker.walks            0                       # Table walker walks requested
system.cpu1.dtb.stage2_mmu.stage2_tlb.write_accesses            0                       # DTB write accesses
system.cpu1.dtb.stage2_mmu.stage2_tlb.write_hits            0                       # DTB write hits
system.cpu1.dtb.stage2_mmu.stage2_tlb.write_misses            0                       # DTB write misses
system.cpu1.dtb.walker.walkRequestOrigin_Requested::Data            0                       # Table walker requests started/completed, data/inst
system.cpu1.dtb.walker.walkRequestOrigin_Requested::Inst            0                       # Table walker requests started/completed, data/inst
system.cpu1.dtb.walker.walkRequestOrigin_Requested::total            0                       # Table walker requests started/completed, data/inst
system.cpu1.dtb.walker.walkRequestOrigin_Completed::Data            0                       # Table walker requests started/completed, data/inst
system.cpu1.dtb.walker.walkRequestOrigin_Completed::Inst            0                       # Table walker requests started/completed, data/inst
system.cpu1.dtb.walker.walkRequestOrigin_Completed::total            0                       # Table walker requests started/completed, data/inst
system.cpu1.dtb.walker.walkRequestOrigin::total            0                       # Table walker requests started/completed, data/inst
system.cpu1.dtb.walker.walks                        0                       # Table walker walks requested
system.cpu1.dtb.write_accesses                      0                       # DTB write accesses
system.cpu1.dtb.write_hits                          0                       # DTB write hits
system.cpu1.dtb.write_misses                        0                       # DTB write misses
system.cpu1.fetch2.amo_instructions                 0                       # Number of memory atomic instructions successfully decoded
system.cpu1.fetch2.fp_instructions                  0                       # Number of floating point instructions successfully decoded
system.cpu1.fetch2.int_instructions            598023                       # Number of integer instructions successfully decoded
system.cpu1.fetch2.load_instructions           251640                       # Number of memory load instructions successfully decoded
system.cpu1.fetch2.store_instructions          121819                       # Number of memory store instructions successfully decoded
system.cpu1.fetch2.vec_instructions                 0                       # Number of SIMD instructions successfully decoded
system.cpu1.idleCycles                         177755                       # Total number of cycles that the object has spent stopped
system.cpu1.ipc                              0.723956                       # IPC: instructions per cycle
system.cpu1.itb.accesses                            0                       # DTB accesses
system.cpu1.itb.align_faults                        0                       # Number of TLB faults due to alignment restrictions
system.cpu1.itb.domain_faults                       0                       # Number of TLB faults due to domain restrictions
system.cpu1.itb.flush_entries                       0                       # Number of entries that have been flushed from TLB
system.cpu1.itb.flush_tlb                           0                       # Number of times complete TLB was flushed
system.cpu1.itb.flush_tlb_asid                      0                       # Number of times TLB was flushed by ASID
system.cpu1.itb.flush_tlb_mva                       0                       # Number of times TLB was flushed by MVA
system.cpu1.itb.flush_tlb_mva_asid                  0                       # Number of times TLB was flushed by MVA & ASID
system.cpu1.itb.hits                                0                       # DTB hits
system.cpu1.itb.inst_accesses                       0                       # ITB inst accesses
system.cpu1.itb.inst_hits                           0                       # ITB inst hits
system.cpu1.itb.inst_misses                         0                       # ITB inst misses
system.cpu1.itb.misses                              0                       # DTB misses
system.cpu1.itb.perms_faults                        0                       # Number of TLB faults due to permissions restrictions
system.cpu1.itb.prefetch_faults                     0                       # Number of TLB faults due to prefetch
system.cpu1.itb.read_accesses                       0                       # DTB read accesses
system.cpu1.itb.read_hits                           0                       # DTB read hits
system.cpu1.itb.read_misses                         0                       # DTB read misses
system.cpu1.itb.stage2_mmu.stage2_tlb.accesses            0                       # DTB accesses
system.cpu1.itb.stage2_mmu.stage2_tlb.align_faults            0                       # Number of TLB faults due to alignment restrictions
system.cpu1.itb.stage2_mmu.stage2_tlb.domain_faults            0                       # Number of TLB faults due to domain restrictions
system.cpu1.itb.stage2_mmu.stage2_tlb.flush_entries            0                       # Number of entries that have been flushed from TLB
system.cpu1.itb.stage2_mmu.stage2_tlb.flush_tlb            0                       # Number of times complete TLB was flushed
system.cpu1.itb.stage2_mmu.stage2_tlb.flush_tlb_asid            0                       # Number of times TLB was flushed by ASID
system.cpu1.itb.stage2_mmu.stage2_tlb.flush_tlb_mva            0                       # Number of times TLB was flushed by MVA
system.cpu1.itb.stage2_mmu.stage2_tlb.flush_tlb_mva_asid            0                       # Number of times TLB was flushed by MVA & ASID
system.cpu1.itb.stage2_mmu.stage2_tlb.hits            0                       # DTB hits
system.cpu1.itb.stage2_mmu.stage2_tlb.inst_accesses            0                       # ITB inst accesses
system.cpu1.itb.stage2_mmu.stage2_tlb.inst_hits            0                       # ITB inst hits
system.cpu1.itb.stage2_mmu.stage2_tlb.inst_misses            0                       # ITB inst misses
system.cpu1.itb.stage2_mmu.stage2_tlb.misses            0                       # DTB misses
system.cpu1.itb.stage2_mmu.stage2_tlb.perms_faults            0                       # Number of TLB faults due to permissions restrictions
system.cpu1.itb.stage2_mmu.stage2_tlb.prefetch_faults            0                       # Number of TLB faults due to prefetch
system.cpu1.itb.stage2_mmu.stage2_tlb.read_accesses            0                       # DTB read accesses
system.cpu1.itb.stage2_mmu.stage2_tlb.read_hits            0                       # DTB read hits
system.cpu1.itb.stage2_mmu.stage2_tlb.read_misses            0                       # DTB read misses
system.cpu1.itb.stage2_mmu.stage2_tlb.walker.walkRequestOrigin_Requested::Data            0                       # Table walker requests started/completed, data/inst
system.cpu1.itb.stage2_mmu.stage2_tlb.walker.walkRequestOrigin_Requested::Inst            0                       # Table walker requests started/completed, data/inst
system.cpu1.itb.stage2_mmu.stage2_tlb.walker.walkRequestOrigin_Requested::total            0                       # Table walker requests started/completed, data/inst
system.cpu1.itb.stage2_mmu.stage2_tlb.walker.walkRequestOrigin_Completed::Data            0                       # Table walker requests started/completed, data/inst
system.cpu1.itb.stage2_mmu.stage2_tlb.walker.walkRequestOrigin_Completed::Inst            0                       # Table walker requests started/completed, data/inst
system.cpu1.itb.stage2_mmu.stage2_tlb.walker.walkRequestOrigin_Completed::total            0                       # Table walker requests started/completed, data/inst
system.cpu1.itb.stage2_mmu.stage2_tlb.walker.walkRequestOrigin::total            0                       # Table walker requests started/completed, data/inst
system.cpu1.itb.stage2_mmu.stage2_tlb.walker.walks            0                       # Table walker walks requested
system.cpu1.itb.stage2_mmu.stage2_tlb.write_accesses            0                       # DTB write accesses
system.cpu1.itb.stage2_mmu.stage2_tlb.write_hits            0                       # DTB write hits
system.cpu1.itb.stage2_mmu.stage2_tlb.write_misses            0                       # DTB write misses
system.cpu1.itb.walker.walkRequestOrigin_Requested::Data            0                       # Table walker requests started/completed, data/inst
system.cpu1.itb.walker.walkRequestOrigin_Requested::Inst            0                       # Table walker requests started/completed, data/inst
system.cpu1.itb.walker.walkRequestOrigin_Requested::total            0                       # Table walker requests started/completed, data/inst
system.cpu1.itb.walker.walkRequestOrigin_Completed::Data            0                       # Table walker requests started/completed, data/inst
system.cpu1.itb.walker.walkRequestOrigin_Completed::Inst            0                       # Table walker requests started/completed, data/inst
system.cpu1.itb.walker.walkRequestOrigin_Completed::total            0                       # Table walker requests started/completed, data/inst
system.cpu1.itb.walker.walkRequestOrigin::total            0                       # Table walker requests started/completed, data/inst
system.cpu1.itb.walker.walks                        0                       # Table walker walks requested
system.cpu1.itb.write_accesses                      0                       # DTB write accesses
system.cpu1.itb.write_hits                          0                       # DTB write hits
system.cpu1.itb.write_misses                        0                       # DTB write misses
system.cpu1.numCycles                         1381300                       # number of cpu cycles simulated
system.cpu1.numFetchSuspends                        0                       # Number of times Execute suspended instruction fetching
system.cpu1.numWorkItemsCompleted                   0                       # number of work items this cpu completed
system.cpu1.numWorkItemsStarted                     0                       # number of work items this cpu started
system.cpu1.op_class_0::No_OpClass                  0      0.00%      0.00% # Class of committed instruction
system.cpu1.op_class_0::IntAlu                 636630     62.17%     62.17% # Class of committed instruction
system.cpu1.op_class_0::IntMult                    10      0.00%     62.17% # Class of committed instruction
system.cpu1.op_class_0::IntDiv                      0      0.00%     62.17% # Class of committed instruction
system.cpu1.op_class_0::FloatAdd                    0      0.00%     62.17% # Class of committed instruction
system.cpu1.op_class_0::FloatCmp                    0      0.00%     62.17% # Class of committed instruction
system.cpu1.op_class_0::FloatCvt                    0      0.00%     62.17% # Class of committed instruction
system.cpu1.op_class_0::FloatMult                   0      0.00%     62.17% # Class of committed instruction
system.cpu1.op_class_0::FloatMultAcc                0      0.00%     62.17% # Class of committed instruction
system.cpu1.op_class_0::FloatDiv                    0      0.00%     62.17% # Class of committed instruction
system.cpu1.op_class_0::FloatMisc                   0      0.00%     62.17% # Class of committed instruction
system.cpu1.op_class_0::FloatSqrt                   0      0.00%     62.17% # Class of committed instruction
system.cpu1.op_class_0::SimdAdd                     0      0.00%     62.17% # Class of committed instruction
system.cpu1.op_class_0::SimdAddAcc                  0      0.00%     62.17% # Class of committed instruction
system.cpu1.op_class_0::SimdAlu                     0      0.00%     62.17% # Class of committed instruction
system.cpu1.op_class_0::SimdCmp                     0      0.00%     62.17% # Class of committed instruction
system.cpu1.op_class_0::SimdCvt                     0      0.00%     62.17% # Class of committed instruction
system.cpu1.op_class_0::SimdMisc                    0      0.00%     62.17% # Class of committed instruction
system.cpu1.op_class_0::SimdMult                    0      0.00%     62.17% # Class of committed instruction
system.cpu1.op_class_0::SimdMultAcc                 0      0.00%     62.17% # Class of committed instruction
system.cpu1.op_class_0::SimdShift                   0      0.00%     62.17% # Class of committed instruction
system.cpu1.op_class_0::SimdShiftAcc                0      0.00%     62.17% # Class of committed instruction
system.cpu1.op_class_0::SimdDiv                     0      0.00%     62.17% # Class of committed instruction
system.cpu1.op_class_0::SimdSqrt                    0      0.00%     62.17% # Class of committed instruction
system.cpu1.op_class_0::SimdFloatAdd                0      0.00%     62.17% # Class of committed instruction
system.cpu1.op_class_0::SimdFloatAlu                0      0.00%     62.17% # Class of committed instruction
system.cpu1.op_class_0::SimdFloatCmp                0      0.00%     62.17% # Class of committed instruction
system.cpu1.op_class_0::SimdFloatCvt                0      0.00%     62.17% # Class of committed instruction
system.cpu1.op_class_0::SimdFloatDiv                0      0.00%     62.17% # Class of committed instruction
system.cpu1.op_class_0::SimdFloatMisc               4      0.00%     62.17% # Class of committed instruction
system.cpu1.op_class_0::SimdFloatMult               0      0.00%     62.17% # Class of committed instruction
system.cpu1.op_class_0::SimdFloatMultAcc            0      0.00%     62.17% # Class of committed instruction
system.cpu1.op_class_0::SimdFloatSqrt               0      0.00%     62.17% # Class of committed instruction
system.cpu1.op_class_0::SimdReduceAdd               0      0.00%     62.17% # Class of committed instruction
system.cpu1.op_class_0::SimdReduceAlu               0      0.00%     62.17% # Class of committed instruction
system.cpu1.op_class_0::SimdReduceCmp               0      0.00%     62.17% # Class of committed instruction
system.cpu1.op_class_0::SimdFloatReduceAdd            0      0.00%     62.17% # Class of committed instruction
system.cpu1.op_class_0::SimdFloatReduceCmp            0      0.00%     62.17% # Class of committed instruction
system.cpu1.op_class_0::SimdAes                     0      0.00%     62.17% # Class of committed instruction
system.cpu1.op_class_0::SimdAesMix                  0      0.00%     62.17% # Class of committed instruction
system.cpu1.op_class_0::SimdSha1Hash                0      0.00%     62.17% # Class of committed instruction
system.cpu1.op_class_0::SimdSha1Hash2               0      0.00%     62.17% # Class of committed instruction
system.cpu1.op_class_0::SimdSha256Hash              0      0.00%     62.17% # Class of committed instruction
system.cpu1.op_class_0::SimdSha256Hash2             0      0.00%     62.17% # Class of committed instruction
system.cpu1.op_class_0::SimdShaSigma2               0      0.00%     62.17% # Class of committed instruction
system.cpu1.op_class_0::SimdShaSigma3               0      0.00%     62.17% # Class of committed instruction
system.cpu1.op_class_0::SimdPredAlu                 0      0.00%     62.17% # Class of committed instruction
system.cpu1.op_class_0::MemRead                248368     24.25%     86.43% # Class of committed instruction
system.cpu1.op_class_0::MemWrite               138982     13.57%    100.00% # Class of committed instruction
system.cpu1.op_class_0::FloatMemRead                0      0.00%    100.00% # Class of committed instruction
system.cpu1.op_class_0::FloatMemWrite               0      0.00%    100.00% # Class of committed instruction
system.cpu1.op_class_0::IprAccess                   0      0.00%    100.00% # Class of committed instruction
system.cpu1.op_class_0::InstPrefetch                0      0.00%    100.00% # Class of committed instruction
system.cpu1.op_class_0::total                 1023994                       # Class of committed instruction
system.cpu1.tickCycles                        1203545                       # Number of cycles that the object actually ticked
system.cpu1.workload.numSyscalls                   10                       # Number of system calls
system.membus.snoop_filter.hit_multi_requests            0                       # Number of requests hitting in the snoop filter with multiple (>1) holders of the requested data.
system.membus.snoop_filter.hit_multi_snoops            0                       # Number of snoops hitting in the snoop filter with multiple (>1) holders of the requested data.
system.membus.snoop_filter.hit_single_requests          102                       # Number of requests hitting in the snoop filter with a single holder of the requested data.
system.membus.snoop_filter.hit_single_snoops            0                       # Number of snoops hitting in the snoop filter with a single holder of the requested data.
system.membus.snoop_filter.tot_requests          4195                       # Total number of requests made to the snoop filter.
system.membus.snoop_filter.tot_snoops               0                       # Total number of snoops made to the snoop filter.
system.tol2bus.snoop_filter.hit_multi_requests           63                       # Number of requests hitting in the snoop filter with multiple (>1) holders of the requested data.
system.tol2bus.snoop_filter.hit_multi_snoops            7                       # Number of snoops hitting in the snoop filter with multiple (>1) holders of the requested data.
system.tol2bus.snoop_filter.hit_single_requests         3073                       # Number of requests hitting in the snoop filter with a single holder of the requested data.
system.tol2bus.snoop_filter.hit_single_snoops          302                       # Number of snoops hitting in the snoop filter with a single holder of the requested data.
system.tol2bus.snoop_filter.tot_requests         8890                       # Total number of requests made to the snoop filter.
system.tol2bus.snoop_filter.tot_snoops            309                       # Total number of snoops made to the snoop filter.
system.membus.pwrStateResidencyTicks::UNDEFINED    690650000                       # Cumulative time (in ticks) in various power states
system.membus.trans_dist::ReadResp               1244                       # Transaction distribution
system.membus.trans_dist::WritebackDirty            3                       # Transaction distribution
system.membus.trans_dist::CleanEvict               97                       # Transaction distribution
system.membus.trans_dist::ReadExReq              2851                       # Transaction distribution
system.membus.trans_dist::ReadExResp             2851                       # Transaction distribution
system.membus.trans_dist::ReadSharedReq          1244                       # Transaction distribution
system.membus.pkt_count_system.l2.mem_side::system.mem_ctrls.port         8290                       # Packet count per connected master and slave (bytes)
system.membus.pkt_count::total                   8290                       # Packet count per connected master and slave (bytes)
system.membus.pkt_size_system.l2.mem_side::system.mem_ctrls.port       262272                       # Cumulative packet size per connected master and slave (bytes)
system.membus.pkt_size::total                  262272                       # Cumulative packet size per connected master and slave (bytes)
system.membus.snoops                                0                       # Total snoops (count)
system.membus.snoopTraffic                          0                       # Total snoop traffic (bytes)
system.membus.snoop_fanout::samples              4095                       # Request fanout histogram
system.membus.snoop_fanout::mean                    0                       # Request fanout histogram
system.membus.snoop_fanout::stdev                   0                       # Request fanout histogram
system.membus.snoop_fanout::underflows              0      0.00%      0.00% # Request fanout histogram
system.membus.snoop_fanout::0                    4095    100.00%    100.00% # Request fanout histogram
system.membus.snoop_fanout::1                       0      0.00%    100.00% # Request fanout histogram
system.membus.snoop_fanout::overflows               0      0.00%    100.00% # Request fanout histogram
system.membus.snoop_fanout::min_value               0                       # Request fanout histogram
system.membus.snoop_fanout::max_value               0                       # Request fanout histogram
system.membus.snoop_fanout::total                4095                       # Request fanout histogram
system.membus.respLayer1.occupancy           21817750                       # Layer occupancy (ticks)
system.membus.respLayer1.utilization              3.2                       # Layer utilization (%)
system.membus.reqLayer0.occupancy             4843000                       # Layer occupancy (ticks)
system.membus.reqLayer0.utilization               0.7                       # Layer utilization (%)
system.voltage_domain.voltage                       1                       # Voltage in Volts
system.clk_domain.clock                          1000                       # Clock period in ticks
system.cpu0.pwrStateResidencyTicks::ON      690650000                       # Cumulative time (in ticks) in various power states
system.cpu0.icache.pwrStateResidencyTicks::UNDEFINED    690650000                       # Cumulative time (in ticks) in various power states
system.cpu0.icache.demand_hits::.cpu0.inst       259217                       # number of demand (read+write) hits
system.cpu0.icache.demand_hits::total          259217                       # number of demand (read+write) hits
system.cpu0.icache.overall_hits::.cpu0.inst       259217                       # number of overall hits
system.cpu0.icache.overall_hits::total         259217                       # number of overall hits
system.cpu0.icache.demand_misses::.cpu0.inst         2037                       # number of demand (read+write) misses
system.cpu0.icache.demand_misses::total          2037                       # number of demand (read+write) misses
system.cpu0.icache.overall_misses::.cpu0.inst         2037                       # number of overall misses
system.cpu0.icache.overall_misses::total         2037                       # number of overall misses
system.cpu0.icache.demand_miss_latency::.cpu0.inst     58984500                       # number of demand (read+write) miss cycles
system.cpu0.icache.demand_miss_latency::total     58984500                       # number of demand (read+write) miss cycles
system.cpu0.icache.overall_miss_latency::.cpu0.inst     58984500                       # number of overall miss cycles
system.cpu0.icache.overall_miss_latency::total     58984500                       # number of overall miss cycles
system.cpu0.icache.demand_accesses::.cpu0.inst       261254                       # number of demand (read+write) accesses
system.cpu0.icache.demand_accesses::total       261254                       # number of demand (read+write) accesses
system.cpu0.icache.overall_accesses::.cpu0.inst       261254                       # number of overall (read+write) accesses
system.cpu0.icache.overall_accesses::total       261254                       # number of overall (read+write) accesses
system.cpu0.icache.demand_miss_rate::.cpu0.inst     0.007797                       # miss rate for demand accesses
system.cpu0.icache.demand_miss_rate::total     0.007797                       # miss rate for demand accesses
system.cpu0.icache.overall_miss_rate::.cpu0.inst     0.007797                       # miss rate for overall accesses
system.cpu0.icache.overall_miss_rate::total     0.007797                       # miss rate for overall accesses
system.cpu0.icache.demand_avg_miss_latency::.cpu0.inst 28956.553756                       # average overall miss latency
system.cpu0.icache.demand_avg_miss_latency::total 28956.553756                       # average overall miss latency
system.cpu0.icache.overall_avg_miss_latency::.cpu0.inst 28956.553756                       # average overall miss latency
system.cpu0.icache.overall_avg_miss_latency::total 28956.553756                       # average overall miss latency
system.cpu0.icache.blocked_cycles::no_mshrs            0                       # number of cycles access was blocked
system.cpu0.icache.blocked_cycles::no_targets            0                       # number of cycles access was blocked
system.cpu0.icache.blocked::no_mshrs                0                       # number of cycles access was blocked
system.cpu0.icache.blocked::no_targets              0                       # number of cycles access was blocked
system.cpu0.icache.avg_blocked_cycles::no_mshrs          nan                       # average number of cycles each access was blocked
system.cpu0.icache.avg_blocked_cycles::no_targets          nan                       # average number of cycles each access was blocked
system.cpu0.icache.writebacks::.writebacks         1691                       # number of writebacks
system.cpu0.icache.writebacks::total             1691                       # number of writebacks
system.cpu0.icache.demand_mshr_misses::.cpu0.inst         2037                       # number of demand (read+write) MSHR misses
system.cpu0.icache.demand_mshr_misses::total         2037                       # number of demand (read+write) MSHR misses
system.cpu0.icache.overall_mshr_misses::.cpu0.inst         2037                       # number of overall MSHR misses
system.cpu0.icache.overall_mshr_misses::total         2037                       # number of overall MSHR misses
system.cpu0.icache.demand_mshr_miss_latency::.cpu0.inst     56947500                       # number of demand (read+write) MSHR miss cycles
system.cpu0.icache.demand_mshr_miss_latency::total     56947500                       # number of demand (read+write) MSHR miss cycles
system.cpu0.icache.overall_mshr_miss_latency::.cpu0.inst     56947500                       # number of overall MSHR miss cycles
system.cpu0.icache.overall_mshr_miss_latency::total     56947500                       # number of overall MSHR miss cycles
system.cpu0.icache.demand_mshr_miss_rate::.cpu0.inst     0.007797                       # mshr miss rate for demand accesses
system.cpu0.icache.demand_mshr_miss_rate::total     0.007797                       # mshr miss rate for demand accesses
system.cpu0.icache.overall_mshr_miss_rate::.cpu0.inst     0.007797                       # mshr miss rate for overall accesses
system.cpu0.icache.overall_mshr_miss_rate::total     0.007797                       # mshr miss rate for overall accesses
system.cpu0.icache.demand_avg_mshr_miss_latency::.cpu0.inst 27956.553756                       # average overall mshr miss latency
system.cpu0.icache.demand_avg_mshr_miss_latency::total 27956.553756                       # average overall mshr miss latency
system.cpu0.icache.overall_avg_mshr_miss_latency::.cpu0.inst 27956.553756                       # average overall mshr miss latency
system.cpu0.icache.overall_avg_mshr_miss_latency::total 27956.553756                       # average overall mshr miss latency
system.cpu0.icache.replacements                  1691                       # number of replacements
system.cpu0.icache.ReadReq_hits::.cpu0.inst       259217                       # number of ReadReq hits
system.cpu0.icache.ReadReq_hits::total         259217                       # number of ReadReq hits
system.cpu0.icache.ReadReq_misses::.cpu0.inst         2037                       # number of ReadReq misses
system.cpu0.icache.ReadReq_misses::total         2037                       # number of ReadReq misses
system.cpu0.icache.ReadReq_miss_latency::.cpu0.inst     58984500                       # number of ReadReq miss cycles
system.cpu0.icache.ReadReq_miss_latency::total     58984500                       # number of ReadReq miss cycles
system.cpu0.icache.ReadReq_accesses::.cpu0.inst       261254                       # number of ReadReq accesses(hits+misses)
system.cpu0.icache.ReadReq_accesses::total       261254                       # number of ReadReq accesses(hits+misses)
system.cpu0.icache.ReadReq_miss_rate::.cpu0.inst     0.007797                       # miss rate for ReadReq accesses
system.cpu0.icache.ReadReq_miss_rate::total     0.007797                       # miss rate for ReadReq accesses
system.cpu0.icache.ReadReq_avg_miss_latency::.cpu0.inst 28956.553756                       # average ReadReq miss latency
system.cpu0.icache.ReadReq_avg_miss_latency::total 28956.553756                       # average ReadReq miss latency
system.cpu0.icache.ReadReq_mshr_misses::.cpu0.inst         2037                       # number of ReadReq MSHR misses
system.cpu0.icache.ReadReq_mshr_misses::total         2037                       # number of ReadReq MSHR misses
system.cpu0.icache.ReadReq_mshr_miss_latency::.cpu0.inst     56947500                       # number of ReadReq MSHR miss cycles
system.cpu0.icache.ReadReq_mshr_miss_latency::total     56947500                       # number of ReadReq MSHR miss cycles
system.cpu0.icache.ReadReq_mshr_miss_rate::.cpu0.inst     0.007797                       # mshr miss rate for ReadReq accesses
system.cpu0.icache.ReadReq_mshr_miss_rate::total     0.007797                       # mshr miss rate for ReadReq accesses
system.cpu0.icache.ReadReq_avg_mshr_miss_latency::.cpu0.inst 27956.553756                       # average ReadReq mshr miss latency
system.cpu0.icache.ReadReq_avg_mshr_miss_latency::total 27956.553756                       # average ReadReq mshr miss latency
system.cpu0.icache.tags.pwrStateResidencyTicks::UNDEFINED    690650000                       # Cumulative time (in ticks) in various power states
system.cpu0.icache.tags.tagsinuse          335.509377                       # Cycle average of tags in use
system.cpu0.icache.tags.total_refs             261254                       # Total number of references to valid blocks.
system.cpu0.icache.tags.sampled_refs             2037                       # Sample count of references to valid blocks.
system.cpu0.icache.tags.avg_refs           128.254296                       # Average number of references to valid blocks.
system.cpu0.icache.tags.warmup_cycle            87500                       # Cycle when the warmup percentage was hit.
system.cpu0.icache.tags.occ_blocks::.cpu0.inst   335.509377                       # Average occupied blocks per requestor
system.cpu0.icache.tags.occ_percent::.cpu0.inst     0.655292                       # Average percentage of cache occupancy
system.cpu0.icache.tags.occ_percent::total     0.655292                       # Average percentage of cache occupancy
system.cpu0.icache.tags.occ_task_id_blocks::1024          346                       # Occupied blocks per task id
system.cpu0.icache.tags.age_task_id_blocks_1024::0            2                       # Occupied blocks per task id
system.cpu0.icache.tags.age_task_id_blocks_1024::2          344                       # Occupied blocks per task id
system.cpu0.icache.tags.occ_task_id_percent::1024     0.675781                       # Percentage of cache occupancy per task id
system.cpu0.icache.tags.tag_accesses           524545                       # Number of tag accesses
system.cpu0.icache.tags.data_accesses          524545                       # Number of data accesses
system.cpu0.dtb.walker.pwrStateResidencyTicks::UNDEFINED    690650000                       # Cumulative time (in ticks) in various power states
system.cpu0.dtb.stage2_mmu.stage2_tlb.walker.pwrStateResidencyTicks::UNDEFINED    690650000                       # Cumulative time (in ticks) in various power states
system.cpu0.dcache.pwrStateResidencyTicks::UNDEFINED    690650000                       # Cumulative time (in ticks) in various power states
system.cpu0.dcache.demand_hits::.cpu0.data       335828                       # number of demand (read+write) hits
system.cpu0.dcache.demand_hits::total          335828                       # number of demand (read+write) hits
system.cpu0.dcache.overall_hits::.cpu0.data       335850                       # number of overall hits
system.cpu0.dcache.overall_hits::total         335850                       # number of overall hits
system.cpu0.dcache.demand_misses::.cpu0.data         3342                       # number of demand (read+write) misses
system.cpu0.dcache.demand_misses::total          3342                       # number of demand (read+write) misses
system.cpu0.dcache.overall_misses::.cpu0.data         3356                       # number of overall misses
system.cpu0.dcache.overall_misses::total         3356                       # number of overall misses
system.cpu0.dcache.demand_miss_latency::.cpu0.data    265710000                       # number of demand (read+write) miss cycles
system.cpu0.dcache.demand_miss_latency::total    265710000                       # number of demand (read+write) miss cycles
system.cpu0.dcache.overall_miss_latency::.cpu0.data    265710000                       # number of overall miss cycles
system.cpu0.dcache.overall_miss_latency::total    265710000                       # number of overall miss cycles
system.cpu0.dcache.demand_accesses::.cpu0.data       339170                       # number of demand (read+write) accesses
system.cpu0.dcache.demand_accesses::total       339170                       # number of demand (read+write) accesses
system.cpu0.dcache.overall_accesses::.cpu0.data       339206                       # number of overall (read+write) accesses
system.cpu0.dcache.overall_accesses::total       339206                       # number of overall (read+write) accesses
system.cpu0.dcache.demand_miss_rate::.cpu0.data     0.009853                       # miss rate for demand accesses
system.cpu0.dcache.demand_miss_rate::total     0.009853                       # miss rate for demand accesses
system.cpu0.dcache.overall_miss_rate::.cpu0.data     0.009894                       # miss rate for overall accesses
system.cpu0.dcache.overall_miss_rate::total     0.009894                       # miss rate for overall accesses
system.cpu0.dcache.demand_avg_miss_latency::.cpu0.data 79506.283662                       # average overall miss latency
system.cpu0.dcache.demand_avg_miss_latency::total 79506.283662                       # average overall miss latency
system.cpu0.dcache.overall_avg_miss_latency::.cpu0.data 79174.612634                       # average overall miss latency
system.cpu0.dcache.overall_avg_miss_latency::total 79174.612634                       # average overall miss latency
system.cpu0.dcache.blocked_cycles::no_mshrs            0                       # number of cycles access was blocked
system.cpu0.dcache.blocked_cycles::no_targets            0                       # number of cycles access was blocked
system.cpu0.dcache.blocked::no_mshrs                0                       # number of cycles access was blocked
system.cpu0.dcache.blocked::no_targets              0                       # number of cycles access was blocked
system.cpu0.dcache.avg_blocked_cycles::no_mshrs          nan                       # average number of cycles each access was blocked
system.cpu0.dcache.avg_blocked_cycles::no_targets          nan                       # average number of cycles each access was blocked
system.cpu0.dcache.writebacks::.writebacks          763                       # number of writebacks
system.cpu0.dcache.writebacks::total              763                       # number of writebacks
system.cpu0.dcache.demand_mshr_hits::.cpu0.data         1461                       # number of demand (read+write) MSHR hits
system.cpu0.dcache.demand_mshr_hits::total         1461                       # number of demand (read+write) MSHR hits
system.cpu0.dcache.overall_mshr_hits::.cpu0.data         1461                       # number of overall MSHR hits
system.cpu0.dcache.overall_mshr_hits::total         1461                       # number of overall MSHR hits
system.cpu0.dcache.demand_mshr_misses::.cpu0.data         1881                       # number of demand (read+write) MSHR misses
system.cpu0.dcache.demand_mshr_misses::total         1881                       # number of demand (read+write) MSHR misses
system.cpu0.dcache.overall_mshr_misses::.cpu0.data         1891                       # number of overall MSHR misses
system.cpu0.dcache.overall_mshr_misses::total         1891                       # number of overall MSHR misses
system.cpu0.dcache.demand_mshr_miss_latency::.cpu0.data    149220000                       # number of demand (read+write) MSHR miss cycles
system.cpu0.dcache.demand_mshr_miss_latency::total    149220000                       # number of demand (read+write) MSHR miss cycles
system.cpu0.dcache.overall_mshr_miss_latency::.cpu0.data    150298000                       # number of overall MSHR miss cycles
system.cpu0.dcache.overall_mshr_miss_latency::total    150298000                       # number of overall MSHR miss cycles
system.cpu0.dcache.demand_mshr_miss_rate::.cpu0.data     0.005546                       # mshr miss rate for demand accesses
system.cpu0.dcache.demand_mshr_miss_rate::total     0.005546                       # mshr miss rate for demand accesses
system.cpu0.dcache.overall_mshr_miss_rate::.cpu0.data     0.005575                       # mshr miss rate for overall accesses
system.cpu0.dcache.overall_mshr_miss_rate::total     0.005575                       # mshr miss rate for overall accesses
system.cpu0.dcache.demand_avg_mshr_miss_latency::.cpu0.data 79330.143541                       # average overall mshr miss latency
system.cpu0.dcache.demand_avg_mshr_miss_latency::total 79330.143541                       # average overall mshr miss latency
system.cpu0.dcache.overall_avg_mshr_miss_latency::.cpu0.data 79480.698043                       # average overall mshr miss latency
system.cpu0.dcache.overall_avg_mshr_miss_latency::total 79480.698043                       # average overall mshr miss latency
system.cpu0.dcache.replacements                   869                       # number of replacements
system.cpu0.dcache.ReadReq_hits::.cpu0.data       189605                       # number of ReadReq hits
system.cpu0.dcache.ReadReq_hits::total         189605                       # number of ReadReq hits
system.cpu0.dcache.ReadReq_misses::.cpu0.data          163                       # number of ReadReq misses
system.cpu0.dcache.ReadReq_misses::total          163                       # number of ReadReq misses
system.cpu0.dcache.ReadReq_miss_latency::.cpu0.data     13672500                       # number of ReadReq miss cycles
system.cpu0.dcache.ReadReq_miss_latency::total     13672500                       # number of ReadReq miss cycles
system.cpu0.dcache.ReadReq_accesses::.cpu0.data       189768                       # number of ReadReq accesses(hits+misses)
system.cpu0.dcache.ReadReq_accesses::total       189768                       # number of ReadReq accesses(hits+misses)
system.cpu0.dcache.ReadReq_miss_rate::.cpu0.data     0.000859                       # miss rate for ReadReq accesses
system.cpu0.dcache.ReadReq_miss_rate::total     0.000859                       # miss rate for ReadReq accesses
system.cpu0.dcache.ReadReq_avg_miss_latency::.cpu0.data 83880.368098                       # average ReadReq miss latency
system.cpu0.dcache.ReadReq_avg_miss_latency::total 83880.368098                       # average ReadReq miss latency
system.cpu0.dcache.ReadReq_mshr_hits::.cpu0.data           11                       # number of ReadReq MSHR hits
system.cpu0.dcache.ReadReq_mshr_hits::total           11                       # number of ReadReq MSHR hits
system.cpu0.dcache.ReadReq_mshr_misses::.cpu0.data          152                       # number of ReadReq MSHR misses
system.cpu0.dcache.ReadReq_mshr_misses::total          152                       # number of ReadReq MSHR misses
system.cpu0.dcache.ReadReq_mshr_miss_latency::.cpu0.data     12486500                       # number of ReadReq MSHR miss cycles
system.cpu0.dcache.ReadReq_mshr_miss_latency::total     12486500                       # number of ReadReq MSHR miss cycles
system.cpu0.dcache.ReadReq_mshr_miss_rate::.cpu0.data     0.000801                       # mshr miss rate for ReadReq accesses
system.cpu0.dcache.ReadReq_mshr_miss_rate::total     0.000801                       # mshr miss rate for ReadReq accesses
system.cpu0.dcache.ReadReq_avg_mshr_miss_latency::.cpu0.data 82148.026316                       # average ReadReq mshr miss latency
system.cpu0.dcache.ReadReq_avg_mshr_miss_latency::total 82148.026316                       # average ReadReq mshr miss latency
system.cpu0.dcache.WriteReq_hits::.cpu0.data       146223                       # number of WriteReq hits
system.cpu0.dcache.WriteReq_hits::total        146223                       # number of WriteReq hits
system.cpu0.dcache.WriteReq_misses::.cpu0.data         3179                       # number of WriteReq misses
system.cpu0.dcache.WriteReq_misses::total         3179                       # number of WriteReq misses
system.cpu0.dcache.WriteReq_miss_latency::.cpu0.data    252037500                       # number of WriteReq miss cycles
system.cpu0.dcache.WriteReq_miss_latency::total    252037500                       # number of WriteReq miss cycles
system.cpu0.dcache.WriteReq_accesses::.cpu0.data       149402                       # number of WriteReq accesses(hits+misses)
system.cpu0.dcache.WriteReq_accesses::total       149402                       # number of WriteReq accesses(hits+misses)
system.cpu0.dcache.WriteReq_miss_rate::.cpu0.data     0.021278                       # miss rate for WriteReq accesses
system.cpu0.dcache.WriteReq_miss_rate::total     0.021278                       # miss rate for WriteReq accesses
system.cpu0.dcache.WriteReq_avg_miss_latency::.cpu0.data 79282.006920                       # average WriteReq miss latency
system.cpu0.dcache.WriteReq_avg_miss_latency::total 79282.006920                       # average WriteReq miss latency
system.cpu0.dcache.WriteReq_mshr_hits::.cpu0.data         1450                       # number of WriteReq MSHR hits
system.cpu0.dcache.WriteReq_mshr_hits::total         1450                       # number of WriteReq MSHR hits
system.cpu0.dcache.WriteReq_mshr_misses::.cpu0.data         1729                       # number of WriteReq MSHR misses
system.cpu0.dcache.WriteReq_mshr_misses::total         1729                       # number of WriteReq MSHR misses
system.cpu0.dcache.WriteReq_mshr_miss_latency::.cpu0.data    136733500                       # number of WriteReq MSHR miss cycles
system.cpu0.dcache.WriteReq_mshr_miss_latency::total    136733500                       # number of WriteReq MSHR miss cycles
system.cpu0.dcache.WriteReq_mshr_miss_rate::.cpu0.data     0.011573                       # mshr miss rate for WriteReq accesses
system.cpu0.dcache.WriteReq_mshr_miss_rate::total     0.011573                       # mshr miss rate for WriteReq accesses
system.cpu0.dcache.WriteReq_avg_mshr_miss_latency::.cpu0.data 79082.417582                       # average WriteReq mshr miss latency
system.cpu0.dcache.WriteReq_avg_mshr_miss_latency::total 79082.417582                       # average WriteReq mshr miss latency
system.cpu0.dcache.SoftPFReq_hits::.cpu0.data           22                       # number of SoftPFReq hits
system.cpu0.dcache.SoftPFReq_hits::total           22                       # number of SoftPFReq hits
system.cpu0.dcache.SoftPFReq_misses::.cpu0.data           14                       # number of SoftPFReq misses
system.cpu0.dcache.SoftPFReq_misses::total           14                       # number of SoftPFReq misses
system.cpu0.dcache.SoftPFReq_accesses::.cpu0.data           36                       # number of SoftPFReq accesses(hits+misses)
system.cpu0.dcache.SoftPFReq_accesses::total           36                       # number of SoftPFReq accesses(hits+misses)
system.cpu0.dcache.SoftPFReq_miss_rate::.cpu0.data     0.388889                       # miss rate for SoftPFReq accesses
system.cpu0.dcache.SoftPFReq_miss_rate::total     0.388889                       # miss rate for SoftPFReq accesses
system.cpu0.dcache.SoftPFReq_mshr_misses::.cpu0.data           10                       # number of SoftPFReq MSHR misses
system.cpu0.dcache.SoftPFReq_mshr_misses::total           10                       # number of SoftPFReq MSHR misses
system.cpu0.dcache.SoftPFReq_mshr_miss_latency::.cpu0.data      1078000                       # number of SoftPFReq MSHR miss cycles
system.cpu0.dcache.SoftPFReq_mshr_miss_latency::total      1078000                       # number of SoftPFReq MSHR miss cycles
system.cpu0.dcache.SoftPFReq_mshr_miss_rate::.cpu0.data     0.277778                       # mshr miss rate for SoftPFReq accesses
system.cpu0.dcache.SoftPFReq_mshr_miss_rate::total     0.277778                       # mshr miss rate for SoftPFReq accesses
system.cpu0.dcache.SoftPFReq_avg_mshr_miss_latency::.cpu0.data       107800                       # average SoftPFReq mshr miss latency
system.cpu0.dcache.SoftPFReq_avg_mshr_miss_latency::total       107800                       # average SoftPFReq mshr miss latency
system.cpu0.dcache.LoadLockedReq_hits::.cpu0.data         1066                       # number of LoadLockedReq hits
system.cpu0.dcache.LoadLockedReq_hits::total         1066                       # number of LoadLockedReq hits
system.cpu0.dcache.LoadLockedReq_misses::.cpu0.data            2                       # number of LoadLockedReq misses
system.cpu0.dcache.LoadLockedReq_misses::total            2                       # number of LoadLockedReq misses
system.cpu0.dcache.LoadLockedReq_miss_latency::.cpu0.data       176000                       # number of LoadLockedReq miss cycles
system.cpu0.dcache.LoadLockedReq_miss_latency::total       176000                       # number of LoadLockedReq miss cycles
system.cpu0.dcache.LoadLockedReq_accesses::.cpu0.data         1068                       # number of LoadLockedReq accesses(hits+misses)
system.cpu0.dcache.LoadLockedReq_accesses::total         1068                       # number of LoadLockedReq accesses(hits+misses)
system.cpu0.dcache.LoadLockedReq_miss_rate::.cpu0.data     0.001873                       # miss rate for LoadLockedReq accesses
system.cpu0.dcache.LoadLockedReq_miss_rate::total     0.001873                       # miss rate for LoadLockedReq accesses
system.cpu0.dcache.LoadLockedReq_avg_miss_latency::.cpu0.data        88000                       # average LoadLockedReq miss latency
system.cpu0.dcache.LoadLockedReq_avg_miss_latency::total        88000                       # average LoadLockedReq miss latency
system.cpu0.dcache.LoadLockedReq_mshr_misses::.cpu0.data            2                       # number of LoadLockedReq MSHR misses
system.cpu0.dcache.LoadLockedReq_mshr_misses::total            2                       # number of LoadLockedReq MSHR misses
system.cpu0.dcache.LoadLockedReq_mshr_miss_latency::.cpu0.data       174000                       # number of LoadLockedReq MSHR miss cycles
system.cpu0.dcache.LoadLockedReq_mshr_miss_latency::total       174000                       # number of LoadLockedReq MSHR miss cycles
[...]
system.mem_ctrls.wrQLenPdf::33                      0                       # What write queue length does an incoming req see
system.mem_ctrls.wrQLenPdf::34                      0                       # What write queue length does an incoming req see
system.mem_ctrls.wrQLenPdf::35                      0                       # What write queue length does an incoming req see
system.mem_ctrls.wrQLenPdf::36                      0                       # What write queue length does an incoming req see
system.mem_ctrls.wrQLenPdf::37                      0                       # What write queue length does an incoming req see
system.mem_ctrls.wrQLenPdf::38                      0                       # What write queue length does an incoming req see
system.mem_ctrls.wrQLenPdf::39                      0                       # What write queue length does an incoming req see
system.mem_ctrls.wrQLenPdf::40                      0                       # What write queue length does an incoming req see
system.mem_ctrls.wrQLenPdf::41                      0                       # What write queue length does an incoming req see
system.mem_ctrls.wrQLenPdf::42                      0                       # What write queue length does an incoming req see
system.mem_ctrls.wrQLenPdf::43                      0                       # What write queue length does an incoming req see
system.mem_ctrls.wrQLenPdf::44                      0                       # What write queue length does an incoming req see
system.mem_ctrls.wrQLenPdf::45                      0                       # What write queue length does an incoming req see
system.mem_ctrls.wrQLenPdf::46                      0                       # What write queue length does an incoming req see
system.mem_ctrls.wrQLenPdf::47                      0                       # What write queue length does an incoming req see
system.mem_ctrls.wrQLenPdf::48                      0                       # What write queue length does an incoming req see
system.mem_ctrls.wrQLenPdf::49                      0                       # What write queue length does an incoming req see
system.mem_ctrls.wrQLenPdf::50                      0                       # What write queue length does an incoming req see
system.mem_ctrls.wrQLenPdf::51                      0                       # What write queue length does an incoming req see
system.mem_ctrls.wrQLenPdf::52                      0                       # What write queue length does an incoming req see
system.mem_ctrls.wrQLenPdf::53                      0                       # What write queue length does an incoming req see
system.mem_ctrls.wrQLenPdf::54                      0                       # What write queue length does an incoming req see
system.mem_ctrls.wrQLenPdf::55                      0                       # What write queue length does an incoming req see
system.mem_ctrls.wrQLenPdf::56                      0                       # What write queue length does an incoming req see
system.mem_ctrls.wrQLenPdf::57                      0                       # What write queue length does an incoming req see
system.mem_ctrls.wrQLenPdf::58                      0                       # What write queue length does an incoming req see
system.mem_ctrls.wrQLenPdf::59                      0                       # What write queue length does an incoming req see
system.mem_ctrls.wrQLenPdf::60                      0                       # What write queue length does an incoming req see
system.mem_ctrls.wrQLenPdf::61                      0                       # What write queue length does an incoming req see
system.mem_ctrls.wrQLenPdf::62                      0                       # What write queue length does an incoming req see
system.mem_ctrls.wrQLenPdf::63                      0                       # What write queue length does an incoming req see
system.mem_ctrls.bytesPerActivate::samples          938                       # Bytes accessed per row activation
system.mem_ctrls.bytesPerActivate::mean    278.311301                       # Bytes accessed per row activation
system.mem_ctrls.bytesPerActivate::gmean   185.517989                       # Bytes accessed per row activation
system.mem_ctrls.bytesPerActivate::stdev   240.295258                       # Bytes accessed per row activation
system.mem_ctrls.bytesPerActivate::0-127          325     34.65%     34.65% # Bytes accessed per row activation
system.mem_ctrls.bytesPerActivate::128-255          184     19.62%     54.26% # Bytes accessed per row activation
system.mem_ctrls.bytesPerActivate::256-383          136     14.50%     68.76% # Bytes accessed per row activation
system.mem_ctrls.bytesPerActivate::384-511           90      9.59%     78.36% # Bytes accessed per row activation
system.mem_ctrls.bytesPerActivate::512-639           71      7.57%     85.93% # Bytes accessed per row activation
system.mem_ctrls.bytesPerActivate::640-767          109     11.62%     97.55% # Bytes accessed per row activation
system.mem_ctrls.bytesPerActivate::768-895            8      0.85%     98.40% # Bytes accessed per row activation
system.mem_ctrls.bytesPerActivate::896-1023            5      0.53%     98.93% # Bytes accessed per row activation
system.mem_ctrls.bytesPerActivate::1024-1151           10      1.07%    100.00% # Bytes accessed per row activation
system.mem_ctrls.bytesPerActivate::total          938                       # Bytes accessed per row activation
system.mem_ctrls.bytesReadDRAM                 262016                       # Total number of bytes read from DRAM
system.mem_ctrls.bytesReadWrQ                      64                       # Total number of bytes read from write queue
system.mem_ctrls.bytesWritten                       0                       # Total number of bytes written to DRAM
system.mem_ctrls.bytesReadSys                  262080                       # Total read bytes from the system interface side
system.mem_ctrls.bytesWrittenSys                  192                       # Total written bytes from the system interface side
system.mem_ctrls.avgRdBW                       379.38                       # Average DRAM read bandwidth in MiByte/s
system.mem_ctrls.avgWrBW                         0.00                       # Average achieved write bandwidth in MiByte/s
system.mem_ctrls.avgRdBWSys                    379.47                       # Average system read bandwidth in MiByte/s
system.mem_ctrls.avgWrBWSys                      0.28                       # Average system write bandwidth in MiByte/s
system.mem_ctrls.peakBW                      12800.00                       # Theoretical peak bandwidth in MiByte/s
system.mem_ctrls.busUtil                         2.96                       # Data bus utilization in percentage
system.mem_ctrls.busUtilRead                     2.96                       # Data bus utilization in percentage for reads
system.mem_ctrls.busUtilWrite                    0.00                       # Data bus utilization in percentage for writes
system.mem_ctrls.totGap                     690431000                       # Total gap between requests
system.mem_ctrls.avgGap                     168479.99                       # Average gap between requests
system.mem_ctrls.masterReadBytes::.cpu0.inst        29248                       # Per-master bytes read from memory
system.mem_ctrls.masterReadBytes::.cpu0.data       119936                       # Per-master bytes read from memory
system.mem_ctrls.masterReadBytes::.cpu1.inst        34496                       # Per-master bytes read from memory
system.mem_ctrls.masterReadBytes::.cpu1.data        78336                       # Per-master bytes read from memory
system.mem_ctrls.masterReadRate::.cpu0.inst 42348512.271049007773                       # Per-master bytes read from memory rate (Bytes/sec)
system.mem_ctrls.masterReadRate::.cpu0.data 173656700.209947139025                       # Per-master bytes read from memory rate (Bytes/sec)
system.mem_ctrls.masterReadRate::.cpu1.inst 49947151.234344460070                       # Per-master bytes read from memory rate (Bytes/sec)
system.mem_ctrls.masterReadRate::.cpu1.data 113423586.476507633924                       # Per-master bytes read from memory rate (Bytes/sec)
system.mem_ctrls.masterReadAccesses::.cpu0.inst          457                       # Per-master read serviced memory accesses
system.mem_ctrls.masterReadAccesses::.cpu0.data         1874                       # Per-master read serviced memory accesses
system.mem_ctrls.masterReadAccesses::.cpu1.inst          539                       # Per-master read serviced memory accesses
system.mem_ctrls.masterReadAccesses::.cpu1.data         1225                       # Per-master read serviced memory accesses
system.mem_ctrls.masterWriteAccesses::.writebacks            3                       # Per-master write serviced memory accesses
system.mem_ctrls.masterReadTotalLat::.cpu0.inst     13975500                       # Per-master read total memory access latency
system.mem_ctrls.masterReadTotalLat::.cpu0.data     51554500                       # Per-master read total memory access latency
system.mem_ctrls.masterReadTotalLat::.cpu1.inst     15873500                       # Per-master read total memory access latency
system.mem_ctrls.masterReadTotalLat::.cpu1.data     34730500                       # Per-master read total memory access latency
system.mem_ctrls.masterReadAvgLat::.cpu0.inst     30580.96                       # Per-master read average memory access latency
system.mem_ctrls.masterReadAvgLat::.cpu0.data     27510.41                       # Per-master read average memory access latency
system.mem_ctrls.masterReadAvgLat::.cpu1.inst     29449.91                       # Per-master read average memory access latency
system.mem_ctrls.masterReadAvgLat::.cpu1.data     28351.43                       # Per-master read average memory access latency
system.mem_ctrls.masterWriteAvgLat::.writebacks         0.00                       # Per-master write average memory access latency
system.mem_ctrls.pageHitRate                    76.91                       # Row buffer hit rate, read and write combined
system.mem_ctrls.rank1.actEnergy              3584280                       # Energy for activate commands per rank (pJ)
system.mem_ctrls.rank1.preEnergy              1897500                       # Energy for precharge commands per rank (pJ)
system.mem_ctrls.rank1.readEnergy            11695320                       # Energy for read commands per rank (pJ)
system.mem_ctrls.rank1.writeEnergy                  0                       # Energy for write commands per rank (pJ)
system.mem_ctrls.rank1.refreshEnergy     54088320.000000                       # Energy for refresh commands per rank (pJ)
system.mem_ctrls.rank1.actBackEnergy        292936110                       # Energy for active background per rank (pJ)
system.mem_ctrls.rank1.preBackEnergy         18526560                       # Energy for precharge background per rank (pJ)
system.mem_ctrls.rank1.actPowerDownEnergy            0                       # Energy for active power-down per rank (pJ)
system.mem_ctrls.rank1.prePowerDownEnergy            0                       # Energy for precharge power-down per rank (pJ)
system.mem_ctrls.rank1.selfRefreshEnergy            0                       # Energy for self refresh per rank (pJ)
system.mem_ctrls.rank1.totalEnergy          382728090                       # Total energy per rank (pJ)
system.mem_ctrls.rank1.averagePower        554.156360                       # Core power per rank (mW)
system.mem_ctrls.rank1.totalIdleTime                0                       # Total Idle time Per DRAM Rank
system.mem_ctrls.rank1.memoryStateTime::IDLE     45764750                       # Time in different power states
system.mem_ctrls.rank1.memoryStateTime::REF     22880000                       # Time in different power states
system.mem_ctrls.rank1.memoryStateTime::SREF            0                       # Time in different power states
system.mem_ctrls.rank1.memoryStateTime::PRE_PDN            0                       # Time in different power states
system.mem_ctrls.rank1.memoryStateTime::ACT    622005250                       # Time in different power states
system.mem_ctrls.rank1.memoryStateTime::ACT_PDN            0                       # Time in different power states
system.mem_ctrls.rank0.actEnergy              3148740                       # Energy for activate commands per rank (pJ)
system.mem_ctrls.rank0.preEnergy              1662210                       # Energy for precharge commands per rank (pJ)
system.mem_ctrls.rank0.readEnergy            17535840                       # Energy for read commands per rank (pJ)
system.mem_ctrls.rank0.writeEnergy                  0                       # Energy for write commands per rank (pJ)
system.mem_ctrls.rank0.refreshEnergy     54088320.000000                       # Energy for refresh commands per rank (pJ)
system.mem_ctrls.rank0.actBackEnergy        304955130                       # Energy for active background per rank (pJ)
system.mem_ctrls.rank0.preBackEnergy          8405280                       # Energy for precharge background per rank (pJ)
system.mem_ctrls.rank0.actPowerDownEnergy            0                       # Energy for active power-down per rank (pJ)
system.mem_ctrls.rank0.prePowerDownEnergy            0                       # Energy for precharge power-down per rank (pJ)
system.mem_ctrls.rank0.selfRefreshEnergy            0                       # Energy for self refresh per rank (pJ)
system.mem_ctrls.rank0.totalEnergy          389795520                       # Total energy per rank (pJ)
system.mem_ctrls.rank0.averagePower        564.389372                       # Core power per rank (mW)
system.mem_ctrls.rank0.totalIdleTime                0                       # Total Idle time Per DRAM Rank
system.mem_ctrls.rank0.memoryStateTime::IDLE     19384250                       # Time in different power states
system.mem_ctrls.rank0.memoryStateTime::REF     22880000                       # Time in different power states
system.mem_ctrls.rank0.memoryStateTime::SREF            0                       # Time in different power states
system.mem_ctrls.rank0.memoryStateTime::PRE_PDN            0                       # Time in different power states
system.mem_ctrls.rank0.memoryStateTime::ACT    648385750                       # Time in different power states
system.mem_ctrls.rank0.memoryStateTime::ACT_PDN            0                       # Time in different power states
system.cpu_clk_domain.clock                       500                       # Clock period in ticks
system.tol2bus.pwrStateResidencyTicks::UNDEFINED    690650000                       # Cumulative time (in ticks) in various power states
system.tol2bus.trans_dist::ReadResp              2967                       # Transaction distribution
system.tol2bus.trans_dist::WritebackDirty          937                       # Transaction distribution
system.tol2bus.trans_dist::WritebackClean         1933                       # Transaction distribution
system.tol2bus.trans_dist::CleanEvict             572                       # Transaction distribution
system.tol2bus.trans_dist::ReadExReq             2862                       # Transaction distribution
system.tol2bus.trans_dist::ReadExResp            2862                       # Transaction distribution
system.tol2bus.trans_dist::ReadCleanReq          2653                       # Transaction distribution
system.tol2bus.trans_dist::ReadSharedReq          314                       # Transaction distribution
system.tol2bus.pkt_count_system.cpu0.icache.mem_side::system.l2.cpu_side         5765                       # Packet count per connected master and slave (bytes)
system.tol2bus.pkt_count_system.cpu0.dcache.mem_side::system.l2.cpu_side         4655                       # Packet count per connected master and slave (bytes)
system.tol2bus.pkt_count_system.cpu1.icache.mem_side::system.l2.cpu_side         1474                       # Packet count per connected master and slave (bytes)
system.tol2bus.pkt_count_system.cpu1.dcache.mem_side::system.l2.cpu_side         2825                       # Packet count per connected master and slave (bytes)
system.tol2bus.pkt_count::total                 14719                       # Packet count per connected master and slave (bytes)
system.tol2bus.pkt_size_system.cpu0.icache.mem_side::system.l2.cpu_side       238592                       # Cumulative packet size per connected master and slave (bytes)
system.tol2bus.pkt_size_system.cpu0.dcache.mem_side::system.l2.cpu_side       169984                       # Cumulative packet size per connected master and slave (bytes)
system.tol2bus.pkt_size_system.cpu1.icache.mem_side::system.l2.cpu_side        54912                       # Cumulative packet size per connected master and slave (bytes)
system.tol2bus.pkt_size_system.cpu1.dcache.mem_side::system.l2.cpu_side        93056                       # Cumulative packet size per connected master and slave (bytes)
system.tol2bus.pkt_size::total                 556544                       # Cumulative packet size per connected master and slave (bytes)
system.tol2bus.snoops                             381                       # Total snoops (count)
system.tol2bus.snoopTraffic                       192                       # Total snoop traffic (bytes)
system.tol2bus.snoop_fanout::samples             6210                       # Request fanout histogram
system.tol2bus.snoop_fanout::mean            0.062963                       # Request fanout histogram
system.tol2bus.snoop_fanout::stdev           0.247513                       # Request fanout histogram
system.tol2bus.snoop_fanout::underflows             0      0.00%      0.00% # Request fanout histogram
system.tol2bus.snoop_fanout::0                   5826     93.82%     93.82% # Request fanout histogram
system.tol2bus.snoop_fanout::1                    377      6.07%     99.89% # Request fanout histogram
system.tol2bus.snoop_fanout::2                      7      0.11%    100.00% # Request fanout histogram
system.tol2bus.snoop_fanout::3                      0      0.00%    100.00% # Request fanout histogram
system.tol2bus.snoop_fanout::4                      0      0.00%    100.00% # Request fanout histogram
system.tol2bus.snoop_fanout::overflows              0      0.00%    100.00% # Request fanout histogram
system.tol2bus.snoop_fanout::min_value              0                       # Request fanout histogram
system.tol2bus.snoop_fanout::max_value              2                       # Request fanout histogram
system.tol2bus.snoop_fanout::total               6210                       # Request fanout histogram
system.tol2bus.reqLayer0.occupancy            7312000                       # Layer occupancy (ticks)
system.tol2bus.reqLayer0.utilization              1.1                       # Layer utilization (%)
system.tol2bus.respLayer5.occupancy           1928991                       # Layer occupancy (ticks)
system.tol2bus.respLayer5.utilization             0.3                       # Layer utilization (%)
system.tol2bus.respLayer4.occupancy            924998                       # Layer occupancy (ticks)
system.tol2bus.respLayer4.utilization             0.1                       # Layer utilization (%)
system.tol2bus.respLayer1.occupancy           2842494                       # Layer occupancy (ticks)
system.tol2bus.respLayer1.utilization             0.4                       # Layer utilization (%)
system.tol2bus.respLayer0.occupancy           3055500                       # Layer occupancy (ticks)
system.tol2bus.respLayer0.utilization             0.4                       # Layer utilization (%)

---------- End Simulation Statistics   ----------
