
---------- Begin Simulation Statistics ----------
final_tick                                  661946500                       # Number of ticks from beginning of simulation (restored from checkpoints and never reset)
host_inst_rate                                 228829                       # Simulator instruction rate (inst/s)
host_mem_usage                                 699848                       # Number of bytes of host memory used
host_op_rate                                   239841                       # Simulator op (including micro ops) rate (op/s)
host_seconds                                     8.09                       # Real time elapsed on the host
host_tick_rate                               81797364                       # Simulator tick rate (ticks/s)
sim_freq                                 1000000000000                       # Frequency of simulated ticks
sim_insts                                     1851770                       # Number of instructions simulated
sim_ops                                       1940911                       # Number of ops (including micro ops) simulated
sim_seconds                                  0.000662                       # Number of seconds simulated
sim_ticks                                   661946500                       # Number of ticks simulated
system.cpu0.branchPred.BTBCorrect                   0                       # Number of correct BTB predictions (this stat may not work properly.
system.cpu0.branchPred.BTBHitPct            87.596255                       # BTB Hit Percentage
system.cpu0.branchPred.BTBHits                  72690                       # Number of BTB hits
system.cpu0.branchPred.BTBLookups               82983                       # Number of BTB lookups
system.cpu0.branchPred.RASInCorrect               506                       # Number of incorrect RAS predictions.
system.cpu0.branchPred.condIncorrect             2155                       # Number of conditional branches incorrect
system.cpu0.branchPred.condPredicted           140250                       # Number of conditional branches predicted
system.cpu0.branchPred.indirectHits              2471                       # Number of indirect target hits.
system.cpu0.branchPred.indirectLookups           3570                       # Number of indirect predictor lookups.
system.cpu0.branchPred.indirectMisses            1099                       # Number of indirect misses.
system.cpu0.branchPred.lookups                 180077                       # Number of BP lookups
system.cpu0.branchPred.usedRAS                  11628                       # Number of times the RAS was used to get a target.
system.cpu0.branchPredindirectMispredicted           89                       # Number of mispredicted indirect branches.
system.cpu0.committedInsts                     851769                       # Number of instructions committed
system.cpu0.committedOps                       938876                       # Number of ops (including micro ops) committed
system.cpu0.cpi                              1.554022                       # CPI: cycles per instruction
system.cpu0.discardedOps                        11863                       # Number of ops (including micro ops) which were discarded before commit
system.cpu0.dtb.accesses                            0                       # DTB accesses
system.cpu0.dtb.align_faults                        0                       # Number of TLB faults due to alignment restrictions
system.cpu0.dtb.domain_faults                       0                       # Number of TLB faults due to domain restrictions
system.cpu0.dtb.flush_entries                       0                       # Number of entries that have been flushed from TLB
system.cpu0.dtb.flush_tlb                           0                       # Number of times complete TLB was flushed
system.cpu0.dtb.flush_tlb_asid                      0                       # Number of times TLB was flushed by ASID
system.cpu0.dtb.flush_tlb_mva                       0                       # Number of times TLB was flushed by MVA
system.cpu0.dtb.flush_tlb_mva_asid                  0                       # Number of times TLB was flushed by MVA & ASID
system.cpu0.dtb.hits                                0                       # DTB hits
system.cpu0.dtb.inst_accesses                       0                       # ITB inst accesses
system.cpu0.dtb.inst_hits                           0                       # ITB inst hits
system.cpu0.dtb.inst_misses                         0                       # ITB inst misses
system.cpu0.dtb.misses                              0                       # DTB misses
system.cpu0.dtb.perms_faults                        0                       # Number of TLB faults due to permissions restrictions
system.cpu0.dtb.prefetch_faults                     0                       # Number of TLB faults due to prefetch
system.cpu0.dtb.read_accesses                       0                       # DTB read accesses
system.cpu0.dtb.read_hits                           0                       # DTB read hits
system.cpu0.dtb.read_misses                         0                       # DTB read misses
system.cpu0.dtb.stage2_mmu.stage2_tlb.accesses            0                       # DTB accesses
system.cpu0.dtb.stage2_mmu.stage2_tlb.align_faults            0                       # Number of TLB faults due to alignment restrictions
system.cpu0.dtb.stage2_mmu.stage2_tlb.domain_faults            0                       # Number of TLB faults due to domain restrictions
system.cpu0.dtb.stage2_mmu.stage2_tlb.flush_entries            0                       # Number of entries that have been flushed from TLB
system.cpu0.dtb.stage2_mmu.stage2_tlb.flush_tlb            0                       # Number of times complete TLB was flushed
system.cpu0.dtb.stage2_mmu.stage2_tlb.flush_tlb_asid            0                       # Number of times TLB was flushed by ASID
system.cpu0.dtb.stage2_mmu.stage2_tlb.flush_tlb_mva            0                       # Number of times TLB was flushed by MVA
system.cpu0.dtb.stage2_mmu.stage2_tlb.flush_tlb_mva_asid            0                       # Number of times TLB was flushed by MVA & ASID
system.cpu0.dtb.stage2_mmu.stage2_tlb.hits            0                       # DTB hits
system.cpu0.dtb.stage2_mmu.stage2_tlb.inst_accesses            0                       # ITB inst accesses
system.cpu0.dtb.stage2_mmu.stage2_tlb.inst_hits            0                       # ITB inst hits
system.cpu0.dtb.stage2_mmu.stage2_tlb.inst_misses            0                       # ITB inst misses
system.cpu0.dtb.stage2_mmu.stage2_tlb.misses            0                       # DTB misses
system.cpu0.dtb.stage2_mmu.stage2_tlb.perms_faults            0                       # Number of TLB faults due to permissions restrictions
system.cpu0.dtb.stage2_mmu.stage2_tlb.prefetch_faults            0                       # Number of TLB faults due to prefetch
system.cpu0.dtb.stage2_mmu.stage2_tlb.read_accesses            0                       # DTB read accesses
system.cpu0.dtb.stage2_mmu.stage2_tlb.read_hits            0                       # DTB read hits
system.cpu0.dtb.stage2_mmu.stage2_tlb.read_misses            0                       # DTB read misses
system.cpu0.dtb.stage2_mmu.stage2_tlb.walker.walkRequestOrigin_Requested::Data            0                       # Table walker requests started/completed, data/inst
system.cpu0.dtb.stage2_mmu.stage2_tlb.walker.walkRequestOrigin_Requested::Inst            0                       # Table walker requests started/completed, data/inst
system.cpu0.dtb.stage2_mmu.stage2_tlb.walker.walkRequestOrigin_Requested::total            0                       # Table walker requests started/completed, data/inst
system.cpu0.dtb.stage2_mmu.stage2_tlb.walker.walkRequestOrigin_Completed::Data            0                       # Table walker requests started/completed, data/inst
system.cpu0.dtb.stage2_mmu.stage2_tlb.walker.walkRequestOrigin_Completed::Inst            0                       # Table walker requests started/completed, data/inst
system.cpu0.dtb.stage2_mmu.stage2_tlb.walker.walkRequestOrigin_Completed::total            0                       # Table walker requests started/completed, data/inst
system.cpu0.dtb.stage2_mmu.stage2_tlb.walker.walkRequestOrigin::total            0                       # Table walker requests started/completed, data/inst
system.cpu0.dtb.stage2_mmu.stage2_tlb.walker.walks            0                       # Table walker walks requested
system.cpu0.dtb.stage2_mmu.stage2_tlb.write_accesses            0                       # DTB write accesses
system.cpu0.dtb.stage2_mmu.stage2_tlb.write_hits            0                       # DTB write hits
system.cpu0.dtb.stage2_mmu.stage2_tlb.write_misses            0                       # DTB write misses
system.cpu0.dtb.walker.walkRequestOrigin_Requested::Data            0                       # Table walker requests started/completed, data/inst
system.cpu0.dtb.walker.walkRequestOrigin_Requested::Inst            0                       # Table walker requests started/completed, data/inst
system.cpu0.dtb.walker.walkRequestOrigin_Requested::total            0                       # Table walker requests started/completed, data/inst
system.cpu0.dtb.walker.walkRequestOrigin_Completed::Data            0                       # Table walker requests started/completed, data/inst
system.cpu0.dtb.walker.walkRequestOrigin_Completed::Inst            0                       # Table walker requests started/completed, data/inst
system.cpu0.dtb.walker.walkRequestOrigin_Completed::total            0                       # Table walker requests started/completed, data/inst
system.cpu0.dtb.walker.walkRequestOrigin::total            0                       # Table walker requests started/completed, data/inst
system.cpu0.dtb.walker.walks                        0                       # Table walker walks requested
system.cpu0.dtb.write_accesses                      0                       # DTB write accesses
system.cpu0.dtb.write_hits                          0                       # DTB write hits
system.cpu0.dtb.write_misses                        0                       # DTB write misses
system.cpu0.fetch2.amo_instructions                 0                       # Number of memory atomic instructions successfully decoded
system.cpu0.fetch2.fp_instructions                  0                       # Number of floating point instructions successfully decoded
system.cpu0.fetch2.int_instructions            410104                       # Number of integer instructions successfully decoded
system.cpu0.fetch2.load_instructions           157955                       # Number of memory load instructions successfully decoded
system.cpu0.fetch2.store_instructions          107974                       # Number of memory store instructions successfully decoded
system.cpu0.fetch2.vec_instructions                 0                       # Number of SIMD instructions successfully decoded
system.cpu0.idleCycles                         329091                       # Total number of cycles that the object has spent stopped
system.cpu0.ipc                              0.643491                       # IPC: instructions per cycle
system.cpu0.itb.accesses                            0                       # DTB accesses
system.cpu0.itb.align_faults                        0                       # Number of TLB faults due to alignment restrictions
system.cpu0.itb.domain_faults                       0                       # Number of TLB faults due to domain restrictions
system.cpu0.itb.flush_entries                       0                       # Number of entries that have been flushed from TLB
system.cpu0.itb.flush_tlb                           0                       # Number of times complete TLB was flushed
system.cpu0.itb.flush_tlb_asid                      0                       # Number of times TLB was flushed by ASID
system.cpu0.itb.flush_tlb_mva                       0                       # Number of times TLB was flushed by MVA
system.cpu0.itb.flush_tlb_mva_asid                  0                       # Number of times TLB was flushed by MVA & ASID
system.cpu0.itb.hits                                0                       # DTB hits
system.cpu0.itb.inst_accesses                       0                       # ITB inst accesses
system.cpu0.itb.inst_hits                           0                       # ITB inst hits
system.cpu0.itb.inst_misses                         0                       # ITB inst misses
system.cpu0.itb.misses                              0                       # DTB misses
system.cpu0.itb.perms_faults                        0                       # Number of TLB faults due to permissions restrictions
system.cpu0.itb.prefetch_faults                     0                       # Number of TLB faults due to prefetch
system.cpu0.itb.read_accesses                       0                       # DTB read accesses
system.cpu0.itb.read_hits                           0                       # DTB read hits
system.cpu0.itb.read_misses                         0                       # DTB read misses
system.cpu0.itb.stage2_mmu.stage2_tlb.accesses            0                       # DTB accesses
system.cpu0.itb.stage2_mmu.stage2_tlb.align_faults            0                       # Number of TLB faults due to alignment restrictions
system.cpu0.itb.stage2_mmu.stage2_tlb.domain_faults            0                       # Number of TLB faults due to domain restrictions
system.cpu0.itb.stage2_mmu.stage2_tlb.flush_entries            0                       # Number of entries that have been flushed from TLB
system.cpu0.itb.stage2_mmu.stage2_tlb.flush_tlb            0                       # Number of times complete TLB was flushed
system.cpu0.itb.stage2_mmu.stage2_tlb.flush_tlb_asid            0                       # Number of times TLB was flushed by ASID
system.cpu0.itb.stage2_mmu.stage2_tlb.flush_tlb_mva            0                       # Number of times TLB was flushed by MVA
system.cpu0.itb.stage2_mmu.stage2_tlb.flush_tlb_mva_asid            0                       # Number of times TLB was flushed by MVA & ASID
system.cpu0.itb.stage2_mmu.stage2_tlb.hits            0                       # DTB hits
system.cpu0.itb.stage2_mmu.stage2_tlb.inst_accesses            0                       # ITB inst accesses
system.cpu0.itb.stage2_mmu.stage2_tlb.inst_hits            0                       # ITB inst hits
system.cpu0.itb.stage2_mmu.stage2_tlb.inst_misses            0                       # ITB inst misses
system.cpu0.itb.stage2_mmu.stage2_tlb.misses            0                       # DTB misses
system.cpu0.itb.stage2_mmu.stage2_tlb.perms_faults            0                       # Number of TLB faults due to permissions restrictions
system.cpu0.itb.stage2_mmu.stage2_tlb.prefetch_faults            0                       # Number of TLB faults due to prefetch
system.cpu0.itb.stage2_mmu.stage2_tlb.read_accesses            0                       # DTB read accesses
system.cpu0.itb.stage2_mmu.stage2_tlb.read_hits            0                       # DTB read hits
system.cpu0.itb.stage2_mmu.stage2_tlb.read_misses            0                       # DTB read misses
system.cpu0.itb.stage2_mmu.stage2_tlb.walker.walkRequestOrigin_Requested::Data            0                       # Table walker requests started/completed, data/inst
system.cpu0.itb.stage2_mmu.stage2_tlb.walker.walkRequestOrigin_Requested::Inst            0                       # Table walker requests started/completed, data/inst
system.cpu0.itb.stage2_mmu.stage2_tlb.walker.walkRequestOrigin_Requested::total            0                       # Table walker requests started/completed, data/inst
system.cpu0.itb.stage2_mmu.stage2_tlb.walker.walkRequestOrigin_Completed::Data            0                       # Table walker requests started/completed, data/inst
system.cpu0.itb.stage2_mmu.stage2_tlb.walker.walkRequestOrigin_Completed::Inst            0                       # Table walker requests started/completed, data/inst
system.cpu0.itb.stage2_mmu.stage2_tlb.walker.walkRequestOrigin_Completed::total            0                       # Table walker requests started/completed, data/inst
system.cpu0.itb.stage2_mmu.stage2_tlb.walker.walkRequestOrigin::total            0                       # Table walker requests started/completed, data/inst
system.cpu0.itb.stage2_mmu.stage2_tlb.walker.walks            0                       # Table walker walks requested
system.cpu0.itb.stage2_mmu.stage2_tlb.write_accesses            0                       # DTB write accesses
system.cpu0.itb.stage2_mmu.stage2_tlb.write_hits            0                       # DTB write hits
system.cpu0.itb.stage2_mmu.stage2_tlb.write_misses            0                       # DTB write misses
system.cpu0.itb.walker.walkRequestOrigin_Requested::Data            0                       # Table walker requests started/completed, data/inst
system.cpu0.itb.walker.walkRequestOrigin_Requested::Inst            0                       # Table walker requests started/completed, data/inst
system.cpu0.itb.walker.walkRequestOrigin_Requested::total            0                       # Table walker requests started/completed, data/inst
system.cpu0.itb.walker.walkRequestOrigin_Completed::Data            0                       # Table walker requests started/completed, data/inst
system.cpu0.itb.walker.walkRequestOrigin_Completed::Inst            0                       # Table walker requests started/completed, data/inst
system.cpu0.itb.walker.walkRequestOrigin_Completed::total            0                       # Table walker requests started/completed, data/inst
system.cpu0.itb.walker.walkRequestOrigin::total            0                       # Table walker requests started/completed, data/inst
system.cpu0.itb.walker.walks                        0                       # Table walker walks requested
system.cpu0.itb.write_accesses                      0                       # DTB write accesses
system.cpu0.itb.write_hits                          0                       # DTB write hits
system.cpu0.itb.write_misses                        0                       # DTB write misses
system.cpu0.numCycles                         1323668                       # number of cpu cycles simulated
system.cpu0.numFetchSuspends                        0                       # Number of times Execute suspended instruction fetching
system.cpu0.numWorkItemsCompleted                   0                       # number of work items this cpu completed
system.cpu0.numWorkItemsStarted                     0                       # number of work items this cpu started
system.cpu0.op_class_0::No_OpClass                  0      0.00%      0.00% # Class of committed instruction
system.cpu0.op_class_0::IntAlu                 599727     63.88%     63.88% # Class of committed instruction
system.cpu0.op_class_0::IntMult                  2951      0.31%     64.19% # Class of committed instruction
system.cpu0.op_class_0::IntDiv                      0      0.00%     64.19% # Class of committed instruction
system.cpu0.op_class_0::FloatAdd                    0      0.00%     64.19% # Class of committed instruction
system.cpu0.op_class_0::FloatCmp                    0      0.00%     64.19% # Class of committed instruction
system.cpu0.op_class_0::FloatCvt                    0      0.00%     64.19% # Class of committed instruction
system.cpu0.op_class_0::FloatMult                   0      0.00%     64.19% # Class of committed instruction
system.cpu0.op_class_0::FloatMultAcc                0      0.00%     64.19% # Class of committed instruction
system.cpu0.op_class_0::FloatDiv                    0      0.00%     64.19% # Class of committed instruction
system.cpu0.op_class_0::FloatMisc                   0      0.00%     64.19% # Class of committed instruction
system.cpu0.op_class_0::FloatSqrt                   0      0.00%     64.19% # Class of committed instruction
system.cpu0.op_class_0::SimdAdd                     0      0.00%     64.19% # Class of committed instruction
system.cpu0.op_class_0::SimdAddAcc                  0      0.00%     64.19% # Class of committed instruction
system.cpu0.op_class_0::SimdAlu                     0      0.00%     64.19% # Class of committed instruction
system.cpu0.op_class_0::SimdCmp                     0      0.00%     64.19% # Class of committed instruction
system.cpu0.op_class_0::SimdCvt                     0      0.00%     64.19% # Class of committed instruction
system.cpu0.op_class_0::SimdMisc                    0      0.00%     64.19% # Class of committed instruction
system.cpu0.op_class_0::SimdMult                    0      0.00%     64.19% # Class of committed instruction
system.cpu0.op_class_0::SimdMultAcc                 0      0.00%     64.19% # Class of committed instruction
system.cpu0.op_class_0::SimdShift                   0      0.00%     64.19% # Class of committed instruction
system.cpu0.op_class_0::SimdShiftAcc                0      0.00%     64.19% # Class of committed instruction
system.cpu0.op_class_0::SimdDiv                     0      0.00%     64.19% # Class of committed instruction
system.cpu0.op_class_0::SimdSqrt                    0      0.00%     64.19% # Class of committed instruction
system.cpu0.op_class_0::SimdFloatAdd                0      0.00%     64.19% # Class of committed instruction
system.cpu0.op_class_0::SimdFloatAlu                0      0.00%     64.19% # Class of committed instruction
system.cpu0.op_class_0::SimdFloatCmp                0      0.00%     64.19% # Class of committed instruction
system.cpu0.op_class_0::SimdFloatCvt                0      0.00%     64.19% # Class of committed instruction
system.cpu0.op_class_0::SimdFloatDiv                0      0.00%     64.19% # Class of committed instruction
system.cpu0.op_class_0::SimdFloatMisc               0      0.00%     64.19% # Class of committed instruction
system.cpu0.op_class_0::SimdFloatMult               0      0.00%     64.19% # Class of committed instruction
system.cpu0.op_class_0::SimdFloatMultAcc            0      0.00%     64.19% # Class of committed instruction
system.cpu0.op_class_0::SimdFloatSqrt               0      0.00%     64.19% # Class of committed instruction
system.cpu0.op_class_0::SimdReduceAdd               0      0.00%     64.19% # Class of committed instruction
system.cpu0.op_class_0::SimdReduceAlu               0      0.00%     64.19% # Class of committed instruction
system.cpu0.op_class_0::SimdReduceCmp               0      0.00%     64.19% # Class of committed instruction
system.cpu0.op_class_0::SimdFloatReduceAdd            0      0.00%     64.19% # Class of committed instruction
system.cpu0.op_class_0::SimdFloatReduceCmp            0      0.00%     64.19% # Class of committed instruction
system.cpu0.op_class_0::SimdAes                     0      0.00%     64.19% # Class of committed instruction
system.cpu0.op_class_0::SimdAesMix                  0      0.00%     64.19% # Class of committed instruction
system.cpu0.op_class_0::SimdSha1Hash                0      0.00%     64.19% # Class of committed instruction
system.cpu0.op_class_0::SimdSha1Hash2               0      0.00%     64.19% # Class of committed instruction
system.cpu0.op_class_0::SimdSha256Hash              0      0.00%     64.19% # Class of committed instruction
system.cpu0.op_class_0::SimdSha256Hash2             0      0.00%     64.19% # Class of committed instruction
system.cpu0.op_class_0::SimdShaSigma2               0      0.00%     64.19% # Class of committed instruction
system.cpu0.op_class_0::SimdShaSigma3               0      0.00%     64.19% # Class of committed instruction
system.cpu0.op_class_0::SimdPredAlu                 0      0.00%     64.19% # Class of committed instruction
system.cpu0.op_class_0::MemRead                184771     19.68%     83.87% # Class of committed instruction
system.cpu0.op_class_0::MemWrite               151427     16.13%    100.00% # Class of committed instruction
system.cpu0.op_class_0::FloatMemRead                0      0.00%    100.00% # Class of committed instruction
system.cpu0.op_class_0::FloatMemWrite               0      0.00%    100.00% # Class of committed instruction
system.cpu0.op_class_0::IprAccess                   0      0.00%    100.00% # Class of committed instruction
system.cpu0.op_class_0::InstPrefetch                0      0.00%    100.00% # Class of committed instruction
system.cpu0.op_class_0::total                  938876                       # Class of committed instruction
system.cpu0.tickCycles                         994577                       # Number of cycles that the object actually ticked
system.cpu0.workload.numSyscalls                   23                       # Number of system calls
system.cpu1.branchPred.BTBCorrect                   0                       # Number of correct BTB predictions (this stat may not work properly.
system.cpu1.branchPred.BTBHitPct            69.770851                       # BTB Hit Percentage
system.cpu1.branchPred.BTBHits                  36172                       # Number of BTB hits
system.cpu1.branchPred.BTBLookups               51844                       # Number of BTB lookups
system.cpu1.branchPred.RASInCorrect                29                       # Number of incorrect RAS predictions.
system.cpu1.branchPred.condIncorrect             1064                       # Number of conditional branches incorrect
system.cpu1.branchPred.condPredicted            40239                       # Number of conditional branches predicted
system.cpu1.branchPred.indirectHits                 9                       # Number of indirect target hits.
system.cpu1.branchPred.indirectLookups            142                       # Number of indirect predictor lookups.
system.cpu1.branchPred.indirectMisses             133                       # Number of indirect misses.
system.cpu1.branchPred.lookups                  63043                       # Number of BP lookups
system.cpu1.branchPred.usedRAS                   7193                       # Number of times the RAS was used to get a target.
system.cpu1.branchPredindirectMispredicted           78                       # Number of mispredicted indirect branches.
system.cpu1.committedInsts                    1000001                       # Number of instructions committed
system.cpu1.committedOps                      1002035                       # Number of ops (including micro ops) committed
system.cpu1.cpi                              1.323892                       # CPI: cycles per instruction
system.cpu1.discardedOps                         3294                       # Number of ops (including micro ops) which were discarded before commit
system.cpu1.dtb.accesses                            0                       # DTB accesses
system.cpu1.dtb.align_faults                        0                       # Number of TLB faults due to alignment restrictions
system.cpu1.dtb.domain_faults                       0                       # Number of TLB faults due to domain restrictions
system.cpu1.dtb.flush_entries                       0                       # Number of entries that have been flushed from TLB
system.cpu1.dtb.flush_tlb                           0                       # Number of times complete TLB was flushed
system.cpu1.dtb.flush_tlb_asid                      0                       # Number of times TLB was flushed by ASID
system.cpu1.dtb.flush_tlb_mva                       0                       # Number of times TLB was flushed by MVA
system.cpu1.dtb.flush_tlb_mva_asid                  0                       # Number of times TLB was flushed by MVA & ASID
system.cpu1.dtb.hits                                0                       # DTB hits
system.cpu1.dtb.inst_accesses                       0                       # ITB inst accesses
system.cpu1.dtb.inst_hits                           0                       # ITB inst hits
system.cpu1.dtb.inst_misses                         0                       # ITB inst misses
system.cpu1.dtb.misses                              0                       # DTB misses
system.cpu1.dtb.perms_faults                        0                       # Number of TLB faults due to permissions restrictions
system.cpu1.dtb.prefetch_faults                     0                       # Number of TLB faults due to prefetch
system.cpu1.dtb.read_accesses                       0                       # DTB read accesses
system.cpu1.dtb.read_hits                           0                       # DTB read hits
system.cpu1.dtb.read_misses                         0                       # DTB read misses
system.cpu1.dtb.stage2_mmu.stage2_tlb.accesses            0                       # DTB accesses
system.cpu1.dtb.stage2_mmu.stage2_tlb.align_faults            0                       # Number of TLB faults due to alignment restrictions
system.cpu1.dtb.stage2_mmu.stage2_tlb.domain_faults            0                       # Number of TLB faults due to domain restrictions
system.cpu1.dtb.stage2_mmu.stage2_tlb.flush_entries            0                       # Number of entries that have been flushed from TLB
system.cpu1.dtb.stage2_mmu.stage2_tlb.flush_tlb            0                       # Number of times complete TLB was flushed
system.cpu1.dtb.stage2_mmu.stage2_tlb.flush_tlb_asid            0                       # Number of times TLB was flushed by ASID
system.cpu1.dtb.stage2_mmu.stage2_tlb.flush_tlb_mva            0                       # Number of times TLB was flushed by MVA
system.cpu1.dtb.stage2_mmu.stage2_tlb.flush_tlb_mva_asid            0                       # Number of times TLB was flushed by MVA & ASID
system.cpu1.dtb.stage2_mmu.stage2_tlb.hits            0                       # DTB hits
system.cpu1.dtb.stage2_mmu.stage2_tlb.inst_accesses            0                       # ITB inst accesses
system.cpu1.dtb.stage2_mmu.stage2_tlb.inst_hits            0                       # ITB inst hits
system.cpu1.dtb.stage2_mmu.stage2_tlb.inst_misses            0                       # ITB inst misses
system.cpu1.dtb.stage2_mmu.stage2_tlb.misses            0                       # DTB misses
system.cpu1.dtb.stage2_mmu.stage2_tlb.perms_faults            0                       # Number of TLB faults due to permissions restrictions
system.cpu1.dtb.stage2_mmu.stage2_tlb.prefetch_faults            0                       # Number of TLB faults due to prefetch
system.cpu1.dtb.stage2_mmu.stage2_tlb.read_accesses            0                       # DTB read accesses
system.cpu1.dtb.stage2_mmu.stage2_tlb.read_hits            0                       # DTB read hits
system.cpu1.dtb.stage2_mmu.stage2_tlb.read_misses            0                       # DTB read misses
system.cpu1.dtb.stage2_mmu.stage2_tlb.walker.walkRequestOrigin_Requested::Data            0                       # Table walker requests started/completed, data/inst
system.cpu1.dtb.stage2_mmu.stage2_tlb.walker.walkRequestOrigin_Requested::Inst            0                       # Table walker requests started/completed, data/inst
system.cpu1.dtb.stage2_mmu.stage2_tlb.walker.walkRequestOrigin_Requested::total            0                       # Table walker requests started/completed, data/inst
system.cpu1.dtb.stage2_mmu.stage2_tlb.walker.walkRequestOrigin_Completed::Data            0                       # Table walker requests started/completed, data/inst
system.cpu1.dtb.stage2_mmu.stage2_tlb.walker.walkRequestOrigin_Completed::Inst            0                       # Table walker requests started/completed, data/inst
system.cpu1.dtb.stage2_mmu.stage2_tlb.walker.walkRequestOrigin_Completed::total            0                       # Table walker requests started/completed, data/inst
system.cpu1.dtb.stage2_mmu.stage2_tlb.walker.walkRequestOrigin::total            0                       # Table walker requests started/completed, data/inst
system.cpu1.dtb.stage2_mmu.stage2_tlb.walker.walks            0                       # Table walker walks requested
system.cpu1.dtb.stage2_mmu.stage2_tlb.write_accesses            0                       # DTB write accesses
system.cpu1.dtb.stage2_mmu.stage2_tlb.write_hits            0                       # DTB write hits
system.cpu1.dtb.stage2_mmu.stage2_tlb.write_misses            0                       # DTB write misses
system.cpu1.dtb.walker.walkRequestOrigin_Requested::Data            0                       # Table walker requests started/completed, data/inst
system.cpu1.dtb.walker.walkRequestOrigin_Requested::Inst            0                       # Table walker requests started/completed, data/inst
system.cpu1.dtb.walker.walkRequestOrigin_Requested::total            0                       # Table walker requests started/completed, data/inst
system.cpu1.dtb.walker.walkRequestOrigin_Completed::Data            0                       # Table walker requests started/completed, data/inst
system.cpu1.dtb.walker.walkRequestOrigin_Completed::Inst            0                       # Table walker requests started/completed, data/inst
system.cpu1.dtb.walker.walkRequestOrigin_Completed::total            0                       # Table walker requests started/completed, data/inst
system.cpu1.dtb.walker.walkRequestOrigin::total            0                       # Table walker requests started/completed, data/inst
system.cpu1.dtb.walker.walks                        0                       # Table walker walks requested
system.cpu1.dtb.write_accesses                      0                       # DTB write accesses
system.cpu1.dtb.write_hits                          0                       # DTB write hits
system.cpu1.dtb.write_misses                        0                       # DTB write misses
system.cpu1.fetch2.amo_instructions                 0                       # Number of memory atomic instructions successfully decoded
system.cpu1.fetch2.fp_instructions                  0                       # Number of floating point instructions successfully decoded
system.cpu1.fetch2.int_instructions            573630                       # Number of integer instructions successfully decoded
system.cpu1.fetch2.load_instructions           209047                       # Number of memory load instructions successfully decoded
system.cpu1.fetch2.store_instructions          183141                       # Number of memory store instructions successfully decoded
system.cpu1.fetch2.vec_instructions                 0                       # Number of SIMD instructions successfully decoded
system.cpu1.idleCycles                         110033                       # Total number of cycles that the object has spent stopped
system.cpu1.ipc                              0.755349                       # IPC: instructions per cycle
system.cpu1.itb.accesses                            0                       # DTB accesses
system.cpu1.itb.align_faults                        0                       # Number of TLB faults due to alignment restrictions
system.cpu1.itb.domain_faults                       0                       # Number of TLB faults due to domain restrictions
system.cpu1.itb.flush_entries                       0                       # Number of entries that have been flushed from TLB
system.cpu1.itb.flush_tlb                           0                       # Number of times complete TLB was flushed
system.cpu1.itb.flush_tlb_asid                      0                       # Number of times TLB was flushed by ASID
system.cpu1.itb.flush_tlb_mva                       0                       # Number of times TLB was flushed by MVA
system.cpu1.itb.flush_tlb_mva_asid                  0                       # Number of times TLB was flushed by MVA & ASID
system.cpu1.itb.hits                                0                       # DTB hits
system.cpu1.itb.inst_accesses                       0                       # ITB inst accesses
system.cpu1.itb.inst_hits                           0                       # ITB inst hits
system.cpu1.itb.inst_misses                         0                       # ITB inst misses
system.cpu1.itb.misses                              0                       # DTB misses
system.cpu1.itb.perms_faults                        0                       # Number of TLB faults due to permissions restrictions
system.cpu1.itb.prefetch_faults                     0                       # Number of TLB faults due to prefetch
system.cpu1.itb.read_accesses                       0                       # DTB read accesses
system.cpu1.itb.read_hits                           0                       # DTB read hits
system.cpu1.itb.read_misses                         0                       # DTB read misses
system.cpu1.itb.stage2_mmu.stage2_tlb.accesses            0                       # DTB accesses
system.cpu1.itb.stage2_mmu.stage2_tlb.align_faults            0                       # Number of TLB faults due to alignment restrictions
system.cpu1.itb.stage2_mmu.stage2_tlb.domain_faults            0                       # Number of TLB faults due to domain restrictions
system.cpu1.itb.stage2_mmu.stage2_tlb.flush_entries            0                       # Number of entries that have been flushed from TLB
system.cpu1.itb.stage2_mmu.stage2_tlb.flush_tlb            0                       # Number of times complete TLB was flushed
system.cpu1.itb.stage2_mmu.stage2_tlb.flush_tlb_asid            0                       # Number of times TLB was flushed by ASID
system.cpu1.itb.stage2_mmu.stage2_tlb.flush_tlb_mva            0                       # Number of times TLB was flushed by MVA
system.cpu1.itb.stage2_mmu.stage2_tlb.flush_tlb_mva_asid            0                       # Number of times TLB was flushed by MVA & ASID
system.cpu1.itb.stage2_mmu.stage2_tlb.hits            0                       # DTB hits
system.cpu1.itb.stage2_mmu.stage2_tlb.inst_accesses            0                       # ITB inst accesses
system.cpu1.itb.stage2_mmu.stage2_tlb.inst_hits            0                       # ITB inst hits
system.cpu1.itb.stage2_mmu.stage2_tlb.inst_misses            0                       # ITB inst misses
system.cpu1.itb.stage2_mmu.stage2_tlb.misses            0                       # DTB misses
system.cpu1.itb.stage2_mmu.stage2_tlb.perms_faults            0                       # Number of TLB faults due to permissions restrictions
system.cpu1.itb.stage2_mmu.stage2_tlb.prefetch_faults            0                       # Number of TLB faults due to prefetch
system.cpu1.itb.stage2_mmu.stage2_tlb.read_accesses            0                       # DTB read accesses
system.cpu1.itb.stage2_mmu.stage2_tlb.read_hits            0                       # DTB read hits
system.cpu1.itb.stage2_mmu.stage2_tlb.read_misses            0                       # DTB read misses
system.cpu1.itb.stage2_mmu.stage2_tlb.walker.walkRequestOrigin_Requested::Data            0                       # Table walker requests started/completed, data/inst
system.cpu1.itb.stage2_mmu.stage2_tlb.walker.walkRequestOrigin_Requested::Inst            0                       # Table walker requests started/completed, data/inst
system.cpu1.itb.stage2_mmu.stage2_tlb.walker.walkRequestOrigin_Requested::total            0                       # Table walker requests started/completed, data/inst
system.cpu1.itb.stage2_mmu.stage2_tlb.walker.walkRequestOrigin_Completed::Data            0                       # Table walker requests started/completed, data/inst
system.cpu1.itb.stage2_mmu.stage2_tlb.walker.walkRequestOrigin_Completed::Inst            0                       # Table walker requests started/completed, data/inst
system.cpu1.itb.stage2_mmu.stage2_tlb.walker.walkRequestOrigin_Completed::total            0                       # Table walker requests started/completed, data/inst
system.cpu1.itb.stage2_mmu.stage2_tlb.walker.walkRequestOrigin::total            0                       # Table walker requests started/completed, data/inst
system.cpu1.itb.stage2_mmu.stage2_tlb.walker.walks            0                       # Table walker walks requested
system.cpu1.itb.stage2_mmu.stage2_tlb.write_accesses            0                       # DTB write accesses
system.cpu1.itb.stage2_mmu.stage2_tlb.write_hits            0                       # DTB write hits
system.cpu1.itb.stage2_mmu.stage2_tlb.write_misses            0                       # DTB write misses
system.cpu1.itb.walker.walkRequestOrigin_Requested::Data            0                       # Table walker requests started/completed, data/inst
system.cpu1.itb.walker.walkRequestOrigin_Requested::Inst            0                       # Table walker requests started/completed, data/inst
system.cpu1.itb.walker.walkRequestOrigin_Requested::total            0                       # Table walker requests started/completed, data/inst
system.cpu1.itb.walker.walkRequestOrigin_Completed::Data            0                       # Table walker requests started/completed, data/inst
system.cpu1.itb.walker.walkRequestOrigin_Completed::Inst            0                       # Table walker requests started/completed, data/inst
system.cpu1.itb.walker.walkRequestOrigin_Completed::total            0                       # Table walker requests started/completed, data/inst
system.cpu1.itb.walker.walkRequestOrigin::total            0                       # Table walker requests started/completed, data/inst
system.cpu1.itb.walker.walks                        0                       # Table walker walks requested
system.cpu1.itb.write_accesses                      0                       # DTB write accesses
system.cpu1.itb.write_hits                          0                       # DTB write hits
system.cpu1.itb.write_misses                        0                       # DTB write misses
system.cpu1.numCycles                         1323893                       # number of cpu cycles simulated
system.cpu1.numFetchSuspends                        0                       # Number of times Execute suspended instruction fetching
system.cpu1.numWorkItemsCompleted                   0                       # number of work items this cpu completed
system.cpu1.numWorkItemsStarted                     0                       # number of work items this cpu started
system.cpu1.op_class_0::No_OpClass                  0      0.00%      0.00% # Class of committed instruction
system.cpu1.op_class_0::IntAlu                 611683     61.04%     61.04% # Class of committed instruction
system.cpu1.op_class_0::IntMult                    10      0.00%     61.05% # Class of committed instruction
system.cpu1.op_class_0::IntDiv                      0      0.00%     61.05% # Class of committed instruction
system.cpu1.op_class_0::FloatAdd                    0      0.00%     61.05% # Class of committed instruction
system.cpu1.op_class_0::FloatCmp                    0      0.00%     61.05% # Class of committed instruction
system.cpu1.op_class_0::FloatCvt                    0      0.00%     61.05% # Class of committed instruction
system.cpu1.op_class_0::FloatMult                   0      0.00%     61.05% # Class of committed instruction
system.cpu1.op_class_0::FloatMultAcc                0      0.00%     61.05% # Class of committed instruction
system.cpu1.op_class_0::FloatDiv                    0      0.00%     61.05% # Class of committed instruction
system.cpu1.op_class_0::FloatMisc                   0      0.00%     61.05% # Class of committed instruction
system.cpu1.op_class_0::FloatSqrt                   0      0.00%     61.05% # Class of committed instruction
system.cpu1.op_class_0::SimdAdd                     0      0.00%     61.05% # Class of committed instruction
system.cpu1.op_class_0::SimdAddAcc                  0      0.00%     61.05% # Class of committed instruction
system.cpu1.op_class_0::SimdAlu                     0      0.00%     61.05% # Class of committed instruction
system.cpu1.op_class_0::SimdCmp                     0      0.00%     61.05% # Class of committed instruction
system.cpu1.op_class_0::SimdCvt                     0      0.00%     61.05% # Class of committed instruction
system.cpu1.op_class_0::SimdMisc                    0      0.00%     61.05% # Class of committed instruction
system.cpu1.op_class_0::SimdMult                    0      0.00%     61.05% # Class of committed instruction
system.cpu1.op_class_0::SimdMultAcc                 0      0.00%     61.05% # Class of committed instruction
system.cpu1.op_class_0::SimdShift                   0      0.00%     61.05% # Class of committed instruction
system.cpu1.op_class_0::SimdShiftAcc                0      0.00%     61.05% # Class of committed instruction
system.cpu1.op_class_0::SimdDiv                     0      0.00%     61.05% # Class of committed instruction
system.cpu1.op_class_0::SimdSqrt                    0      0.00%     61.05% # Class of committed instruction
system.cpu1.op_class_0::SimdFloatAdd                0      0.00%     61.05% # Class of committed instruction
system.cpu1.op_class_0::SimdFloatAlu                0      0.00%     61.05% # Class of committed instruction
system.cpu1.op_class_0::SimdFloatCmp                0      0.00%     61.05% # Class of committed instruction
system.cpu1.op_class_0::SimdFloatCvt                0      0.00%     61.05% # Class of committed instruction
system.cpu1.op_class_0::SimdFloatDiv                0      0.00%     61.05% # Class of committed instruction
system.cpu1.op_class_0::SimdFloatMisc               4      0.00%     61.05% # Class of committed instruction
system.cpu1.op_class_0::SimdFloatMult               0      0.00%     61.05% # Class of committed instruction
system.cpu1.op_class_0::SimdFloatMultAcc            0      0.00%     61.05% # Class of committed instruction
system.cpu1.op_class_0::SimdFloatSqrt               0      0.00%     61.05% # Class of committed instruction
system.cpu1.op_class_0::SimdReduceAdd               0      0.00%     61.05% # Class of committed instruction
system.cpu1.op_class_0::SimdReduceAlu               0      0.00%     61.05% # Class of committed instruction
system.cpu1.op_class_0::SimdReduceCmp               0      0.00%     61.05% # Class of committed instruction
system.cpu1.op_class_0::SimdFloatReduceAdd            0      0.00%     61.05% # Class of committed instruction
system.cpu1.op_class_0::SimdFloatReduceCmp            0      0.00%     61.05% # Class of committed instruction
system.cpu1.op_class_0::SimdAes                     0      0.00%     61.05% # Class of committed instruction
system.cpu1.op_class_0::SimdAesMix                  0      0.00%     61.05% # Class of committed instruction
system.cpu1.op_class_0::SimdSha1Hash                0      0.00%     61.05% # Class of committed instruction
system.cpu1.op_class_0::SimdSha1Hash2               0      0.00%     61.05% # Class of committed instruction
system.cpu1.op_class_0::SimdSha256Hash              0      0.00%     61.05% # Class of committed instruction
system.cpu1.op_class_0::SimdSha256Hash2             0      0.00%     61.05% # Class of committed instruction
system.cpu1.op_class_0::SimdShaSigma2               0      0.00%     61.05% # Class of committed instruction
system.cpu1.op_class_0::SimdShaSigma3               0      0.00%     61.05% # Class of committed instruction
system.cpu1.op_class_0::SimdPredAlu                 0      0.00%     61.05% # Class of committed instruction
system.cpu1.op_class_0::MemRead                207736     20.73%     81.78% # Class of committed instruction
system.cpu1.op_class_0::MemWrite               182602     18.22%    100.00% # Class of committed instruction
system.cpu1.op_class_0::FloatMemRead                0      0.00%    100.00% # Class of committed instruction
system.cpu1.op_class_0::FloatMemWrite               0      0.00%    100.00% # Class of committed instruction
system.cpu1.op_class_0::IprAccess                   0      0.00%    100.00% # Class of committed instruction
system.cpu1.op_class_0::InstPrefetch                0      0.00%    100.00% # Class of committed instruction
system.cpu1.op_class_0::total                 1002035                       # Class of committed instruction
system.cpu1.tickCycles                        1213860                       # Number of cycles that the object actually ticked
system.cpu1.workload.numSyscalls                   10                       # Number of system calls
system.membus.snoop_filter.hit_multi_requests            0                       # Number of requests hitting in the snoop filter with multiple (>1) holders of the requested data.
system.membus.snoop_filter.hit_multi_snoops            0                       # Number of snoops hitting in the snoop filter with multiple (>1) holders of the requested data.
system.membus.snoop_filter.hit_single_requests          157                       # Number of requests hitting in the snoop filter with a single holder of the requested data.
system.membus.snoop_filter.hit_single_snoops            0                       # Number of snoops hitting in the snoop filter with a single holder of the requested data.
system.membus.snoop_filter.tot_requests          3186                       # Total number of requests made to the snoop filter.
system.membus.snoop_filter.tot_snoops               0                       # Total number of snoops made to the snoop filter.
system.tol2bus.snoop_filter.hit_multi_requests           46                       # Number of requests hitting in the snoop filter with multiple (>1) holders of the requested data.
system.tol2bus.snoop_filter.hit_multi_snoops            5                       # Number of snoops hitting in the snoop filter with multiple (>1) holders of the requested data.
system.tol2bus.snoop_filter.hit_single_requests         2664                       # Number of requests hitting in the snoop filter with a single holder of the requested data.
system.tol2bus.snoop_filter.hit_single_snoops          450                       # Number of snoops hitting in the snoop filter with a single holder of the requested data.
system.tol2bus.snoop_filter.tot_requests         7277                       # Total number of requests made to the snoop filter.
system.tol2bus.snoop_filter.tot_snoops            455                       # Total number of snoops made to the snoop filter.
system.membus.pwrStateResidencyTicks::UNDEFINED    661946500                       # Cumulative time (in ticks) in various power states
system.membus.trans_dist::ReadResp               1253                       # Transaction distribution
system.membus.trans_dist::WritebackDirty           48                       # Transaction distribution
system.membus.trans_dist::CleanEvict              109                       # Transaction distribution
system.membus.trans_dist::ReadExReq              1776                       # Transaction distribution
system.membus.trans_dist::ReadExResp             1775                       # Transaction distribution
system.membus.trans_dist::ReadSharedReq          1253                       # Transaction distribution
system.membus.pkt_count_system.l2.mem_side::system.mem_ctrls.port         6214                       # Packet count per connected master and slave (bytes)
system.membus.pkt_count::total                   6214                       # Packet count per connected master and slave (bytes)
system.membus.pkt_size_system.l2.mem_side::system.mem_ctrls.port       196864                       # Cumulative packet size per connected master and slave (bytes)
system.membus.pkt_size::total                  196864                       # Cumulative packet size per connected master and slave (bytes)
system.membus.snoops                                0                       # Total snoops (count)
system.membus.snoopTraffic                          0                       # Total snoop traffic (bytes)
system.membus.snoop_fanout::samples              3029                       # Request fanout histogram
system.membus.snoop_fanout::mean                    0                       # Request fanout histogram
system.membus.snoop_fanout::stdev                   0                       # Request fanout histogram
system.membus.snoop_fanout::underflows              0      0.00%      0.00% # Request fanout histogram
system.membus.snoop_fanout::0                    3029    100.00%    100.00% # Request fanout histogram
system.membus.snoop_fanout::1                       0      0.00%    100.00% # Request fanout histogram
system.membus.snoop_fanout::overflows               0      0.00%    100.00% # Request fanout histogram
system.membus.snoop_fanout::min_value               0                       # Request fanout histogram
system.membus.snoop_fanout::max_value               0                       # Request fanout histogram
system.membus.snoop_fanout::total                3029                       # Request fanout histogram
system.membus.respLayer1.occupancy           16121750                       # Layer occupancy (ticks)
system.membus.respLayer1.utilization              2.4                       # Layer utilization (%)
system.membus.reqLayer0.occupancy             3764500                       # Layer occupancy (ticks)
system.membus.reqLayer0.utilization               0.6                       # Layer utilization (%)
system.voltage_domain.voltage                       1                       # Voltage in Volts
system.clk_domain.clock                          1000                       # Clock period in ticks
system.cpu0.pwrStateResidencyTicks::ON      661946500                       # Cumulative time (in ticks) in various power states
system.cpu0.icache.pwrStateResidencyTicks::UNDEFINED    661946500                       # Cumulative time (in ticks) in various power states
system.cpu0.icache.demand_hits::.cpu0.inst       248161                       # number of demand (read+write) hits
system.cpu0.icache.demand_hits::total          248161                       # number of demand (read+write) hits
system.cpu0.icache.overall_hits::.cpu0.inst       248161                       # number of overall hits
system.cpu0.icache.overall_hits::total         248161                       # number of overall hits
system.cpu0.icache.demand_misses::.cpu0.inst         1971                       # number of demand (read+write) misses
system.cpu0.icache.demand_misses::total          1971                       # number of demand (read+write) misses
system.cpu0.icache.overall_misses::.cpu0.inst         1971                       # number of overall misses
system.cpu0.icache.overall_misses::total         1971                       # number of overall misses
system.cpu0.icache.demand_miss_latency::.cpu0.inst     58063500                       # number of demand (read+write) miss cycles
system.cpu0.icache.demand_miss_latency::total     58063500                       # number of demand (read+write) miss cycles
system.cpu0.icache.overall_miss_latency::.cpu0.inst     58063500                       # number of overall miss cycles
system.cpu0.icache.overall_miss_latency::total     58063500                       # number of overall miss cycles
system.cpu0.icache.demand_accesses::.cpu0.inst       250132                       # number of demand (read+write) accesses
system.cpu0.icache.demand_accesses::total       250132                       # number of demand (read+write) accesses
system.cpu0.icache.overall_accesses::.cpu0.inst       250132                       # number of overall (read+write) accesses
system.cpu0.icache.overall_accesses::total       250132                       # number of overall (read+write) accesses
system.cpu0.icache.demand_miss_rate::.cpu0.inst     0.007880                       # miss rate for demand accesses
system.cpu0.icache.demand_miss_rate::total     0.007880                       # miss rate for demand accesses
system.cpu0.icache.overall_miss_rate::.cpu0.inst     0.007880                       # miss rate for overall accesses
system.cpu0.icache.overall_miss_rate::total     0.007880                       # miss rate for overall accesses
system.cpu0.icache.demand_avg_miss_latency::.cpu0.inst 29458.904110                       # average overall miss latency
system.cpu0.icache.demand_avg_miss_latency::total 29458.904110                       # average overall miss latency
system.cpu0.icache.overall_avg_miss_latency::.cpu0.inst 29458.904110                       # average overall miss latency
system.cpu0.icache.overall_avg_miss_latency::total 29458.904110                       # average overall miss latency
system.cpu0.icache.blocked_cycles::no_mshrs            0                       # number of cycles access was blocked
system.cpu0.icache.blocked_cycles::no_targets            0                       # number of cycles access was blocked
system.cpu0.icache.blocked::no_mshrs                0                       # number of cycles access was blocked
system.cpu0.icache.blocked::no_targets              0                       # number of cycles access was blocked
system.cpu0.icache.avg_blocked_cycles::no_mshrs          nan                       # average number of cycles each access was blocked
system.cpu0.icache.avg_blocked_cycles::no_targets          nan                       # average number of cycles each access was blocked
system.cpu0.icache.writebacks::.writebacks         1625                       # number of writebacks
system.cpu0.icache.writebacks::total             1625                       # number of writebacks
system.cpu0.icache.demand_mshr_misses::.cpu0.inst         1971                       # number of demand (read+write) MSHR misses
system.cpu0.icache.demand_mshr_misses::total         1971                       # number of demand (read+write) MSHR misses
system.cpu0.icache.overall_mshr_misses::.cpu0.inst         1971                       # number of overall MSHR misses
system.cpu0.icache.overall_mshr_misses::total         1971                       # number of overall MSHR misses
system.cpu0.icache.demand_mshr_miss_latency::.cpu0.inst     56092500                       # number of demand (read+write) MSHR miss cycles
system.cpu0.icache.demand_mshr_miss_latency::total     56092500                       # number of demand (read+write) MSHR miss cycles
system.cpu0.icache.overall_mshr_miss_latency::.cpu0.inst     56092500                       # number of overall MSHR miss cycles
system.cpu0.icache.overall_mshr_miss_latency::total     56092500                       # number of overall MSHR miss cycles
system.cpu0.icache.demand_mshr_miss_rate::.cpu0.inst     0.007880                       # mshr miss rate for demand accesses
system.cpu0.icache.demand_mshr_miss_rate::total     0.007880                       # mshr miss rate for demand accesses
system.cpu0.icache.overall_mshr_miss_rate::.cpu0.inst     0.007880                       # mshr miss rate for overall accesses
system.cpu0.icache.overall_mshr_miss_rate::total     0.007880                       # mshr miss rate for overall accesses
system.cpu0.icache.demand_avg_mshr_miss_latency::.cpu0.inst 28458.904110                       # average overall mshr miss latency
system.cpu0.icache.demand_avg_mshr_miss_latency::total 28458.904110                       # average overall mshr miss latency
system.cpu0.icache.overall_avg_mshr_miss_latency::.cpu0.inst 28458.904110                       # average overall mshr miss latency
system.cpu0.icache.overall_avg_mshr_miss_latency::total 28458.904110                       # average overall mshr miss latency
system.cpu0.icache.replacements                  1625                       # number of replacements
system.cpu0.icache.ReadReq_hits::.cpu0.inst       248161                       # number of ReadReq hits
system.cpu0.icache.ReadReq_hits::total         248161                       # number of ReadReq hits
system.cpu0.icache.ReadReq_misses::.cpu0.inst         1971                       # number of ReadReq misses
system.cpu0.icache.ReadReq_misses::total         1971                       # number of ReadReq misses
system.cpu0.icache.ReadReq_miss_latency::.cpu0.inst     58063500                       # number of ReadReq miss cycles
system.cpu0.icache.ReadReq_miss_latency::total     58063500                       # number of ReadReq miss cycles
system.cpu0.icache.ReadReq_accesses::.cpu0.inst       250132                       # number of ReadReq accesses(hits+misses)
system.cpu0.icache.ReadReq_accesses::total       250132                       # number of ReadReq accesses(hits+misses)
system.cpu0.icache.ReadReq_miss_rate::.cpu0.inst     0.007880                       # miss rate for ReadReq accesses
system.cpu0.icache.ReadReq_miss_rate::total     0.007880                       # miss rate for ReadReq accesses
system.cpu0.icache.ReadReq_avg_miss_latency::.cpu0.inst 29458.904110                       # average ReadReq miss latency
system.cpu0.icache.ReadReq_avg_miss_latency::total 29458.904110                       # average ReadReq miss latency
system.cpu0.icache.ReadReq_mshr_misses::.cpu0.inst         1971                       # number of ReadReq MSHR misses
system.cpu0.icache.ReadReq_mshr_misses::total         1971                       # number of ReadReq MSHR misses
system.cpu0.icache.ReadReq_mshr_miss_latency::.cpu0.inst     56092500                       # number of ReadReq MSHR miss cycles
system.cpu0.icache.ReadReq_mshr_miss_latency::total     56092500                       # number of ReadReq MSHR miss cycles
system.cpu0.icache.ReadReq_mshr_miss_rate::.cpu0.inst     0.007880                       # mshr miss rate for ReadReq accesses
system.cpu0.icache.ReadReq_mshr_miss_rate::total     0.007880                       # mshr miss rate for ReadReq accesses
system.cpu0.icache.ReadReq_avg_mshr_miss_latency::.cpu0.inst 28458.904110                       # average ReadReq mshr miss latency
system.cpu0.icache.ReadReq_avg_mshr_miss_latency::total 28458.904110                       # average ReadReq mshr miss latency
system.cpu0.icache.tags.pwrStateResidencyTicks::UNDEFINED    661946500                       # Cumulative time (in ticks) in various power states
system.cpu0.icache.tags.tagsinuse          335.087075                       # Cycle average of tags in use
system.cpu0.icache.tags.total_refs             250132                       # Total number of references to valid blocks.
system.cpu0.icache.tags.sampled_refs             1971                       # Sample count of references to valid blocks.
system.cpu0.icache.tags.avg_refs           126.906139                       # Average number of references to valid blocks.
system.cpu0.icache.tags.warmup_cycle            87500                       # Cycle when the warmup percentage was hit.
system.cpu0.icache.tags.occ_blocks::.cpu0.inst   335.087075                       # Average occupied blocks per requestor
system.cpu0.icache.tags.occ_percent::.cpu0.inst     0.654467                       # Average percentage of cache occupancy
system.cpu0.icache.tags.occ_percent::total     0.654467                       # Average percentage of cache occupancy
system.cpu0.icache.tags.occ_task_id_blocks::1024          346                       # Occupied blocks per task id
system.cpu0.icache.tags.age_task_id_blocks_1024::0            2                       # Occupied blocks per task id
system.cpu0.icache.tags.age_task_id_blocks_1024::2          344                       # Occupied blocks per task id
system.cpu0.icache.tags.occ_task_id_percent::1024     0.675781                       # Percentage of cache occupancy per task id
system.cpu0.icache.tags.tag_accesses           502235                       # Number of tag accesses
system.cpu0.icache.tags.data_accesses          502235                       # Number of data accesses
system.cpu0.dtb.walker.pwrStateResidencyTicks::UNDEFINED    661946500                       # Cumulative time (in ticks) in various power states
system.cpu0.dtb.stage2_mmu.stage2_tlb.walker.pwrStateResidencyTicks::UNDEFINED    661946500                       # Cumulative time (in ticks) in various power states
system.cpu0.dcache.pwrStateResidencyTicks::UNDEFINED    661946500                       # Cumulative time (in ticks) in various power states
system.cpu0.dcache.demand_hits::.cpu0.data       321448                       # number of demand (read+write) hits
system.cpu0.dcache.demand_hits::total          321448                       # number of demand (read+write) hits
system.cpu0.dcache.overall_hits::.cpu0.data       321470                       # number of overall hits
system.cpu0.dcache.overall_hits::total         321470                       # number of overall hits
system.cpu0.dcache.demand_misses::.cpu0.data         3207                       # number of demand (read+write) misses
system.cpu0.dcache.demand_misses::total          3207                       # number of demand (read+write) misses
system.cpu0.dcache.overall_misses::.cpu0.data         3221                       # number of overall misses
system.cpu0.dcache.overall_misses::total         3221                       # number of overall misses
system.cpu0.dcache.demand_miss_latency::.cpu0.data    252077000                       # number of demand (read+write) miss cycles
system.cpu0.dcache.demand_miss_latency::total    252077000                       # number of demand (read+write) miss cycles
system.cpu0.dcache.overall_miss_latency::.cpu0.data    252077000                       # number of overall miss cycles
system.cpu0.dcache.overall_miss_latency::total    252077000                       # number of overall miss cycles
system.cpu0.dcache.demand_accesses::.cpu0.data       324655                       # number of demand (read+write) accesses
system.cpu0.dcache.demand_accesses::total       324655                       # number of demand (read+write) accesses
system.cpu0.dcache.overall_accesses::.cpu0.data       324691                       # number of overall (read+write) accesses
system.cpu0.dcache.overall_accesses::total       324691                       # number of overall (read+write) accesses
system.cpu0.dcache.demand_miss_rate::.cpu0.data     0.009878                       # miss rate for demand accesses
system.cpu0.dcache.demand_miss_rate::total     0.009878                       # miss rate for demand accesses
system.cpu0.dcache.overall_miss_rate::.cpu0.data     0.009920                       # miss rate for overall accesses
system.cpu0.dcache.overall_miss_rate::total     0.009920                       # miss rate for overall accesses
system.cpu0.dcache.demand_avg_miss_latency::.cpu0.data 78602.120362                       # average overall miss latency
system.cpu0.dcache.demand_avg_miss_latency::total 78602.120362                       # average overall miss latency
system.cpu0.dcache.overall_avg_miss_latency::.cpu0.data 78260.478112                       # average overall miss latency
system.cpu0.dcache.overall_avg_miss_latency::total 78260.478112                       # average overall miss latency
system.cpu0.dcache.blocked_cycles::no_mshrs            0                       # number of cycles access was blocked
system.cpu0.dcache.blocked_cycles::no_targets            0                       # number of cycles access was blocked
system.cpu0.dcache.blocked::no_mshrs                0                       # number of cycles access was blocked
system.cpu0.dcache.blocked::no_targets              0                       # number of cycles access was blocked
system.cpu0.dcache.avg_blocked_cycles::no_mshrs          nan                       # average number of cycles each access was blocked
system.cpu0.dcache.avg_blocked_cycles::no_targets          nan                       # average number of cycles each access was blocked
system.cpu0.dcache.writebacks::.writebacks          686                       # number of writebacks
system.cpu0.dcache.writebacks::total              686                       # number of writebacks
system.cpu0.dcache.demand_mshr_hits::.cpu0.data         1398                       # number of demand (read+write) MSHR hits
system.cpu0.dcache.demand_mshr_hits::total         1398                       # number of demand (read+write) MSHR hits
system.cpu0.dcache.overall_mshr_hits::.cpu0.data         1398                       # number of overall MSHR hits
system.cpu0.dcache.overall_mshr_hits::total         1398                       # number of overall MSHR hits
system.cpu0.dcache.demand_mshr_misses::.cpu0.data         1809                       # number of demand (read+write) MSHR misses
system.cpu0.dcache.demand_mshr_misses::total         1809                       # number of demand (read+write) MSHR misses
system.cpu0.dcache.overall_mshr_misses::.cpu0.data         1819                       # number of overall MSHR misses
system.cpu0.dcache.overall_mshr_misses::total         1819                       # number of overall MSHR misses
system.cpu0.dcache.demand_mshr_miss_latency::.cpu0.data    142498500                       # number of demand (read+write) MSHR miss cycles
system.cpu0.dcache.demand_mshr_miss_latency::total    142498500                       # number of demand (read+write) MSHR miss cycles
system.cpu0.dcache.overall_mshr_miss_latency::.cpu0.data    143539500                       # number of overall MSHR miss cycles
system.cpu0.dcache.overall_mshr_miss_latency::total    143539500                       # number of overall MSHR miss cycles
system.cpu0.dcache.demand_mshr_miss_rate::.cpu0.data     0.005572                       # mshr miss rate for demand accesses
system.cpu0.dcache.demand_mshr_miss_rate::total     0.005572                       # mshr miss rate for demand accesses
system.cpu0.dcache.overall_mshr_miss_rate::.cpu0.data     0.005602                       # mshr miss rate for overall accesses
system.cpu0.dcache.overall_mshr_miss_rate::total     0.005602                       # mshr miss rate for overall accesses
system.cpu0.dcache.demand_avg_mshr_miss_latency::.cpu0.data 78771.973466                       # average overall mshr miss latency
system.cpu0.dcache.demand_avg_mshr_miss_latency::total 78771.973466                       # average overall mshr miss latency
system.cpu0.dcache.overall_avg_mshr_miss_latency::.cpu0.data 78911.214953                       # average overall mshr miss latency
system.cpu0.dcache.overall_avg_mshr_miss_latency::total 78911.214953                       # average overall mshr miss latency
system.cpu0.dcache.replacements                   796                       # number of replacements
system.cpu0.dcache.ReadReq_hits::.cpu0.data       181493                       # number of ReadReq hits
system.cpu0.dcache.ReadReq_hits::total         181493                       # number of ReadReq hits
system.cpu0.dcache.ReadReq_misses::.cpu0.data          163                       # number of ReadReq misses
system.cpu0.dcache.ReadReq_misses::total          163                       # number of ReadReq misses
system.cpu0.dcache.ReadReq_miss_latency::.cpu0.data     13643000                       # number of ReadReq miss cycles
system.cpu0.dcache.ReadReq_miss_latency::total     13643000                       # number of ReadReq miss cycles
system.cpu0.dcache.ReadReq_accesses::.cpu0.data       181656                       # number of ReadReq accesses(hits+misses)
system.cpu0.dcache.ReadReq_accesses::total       181656                       # number of ReadReq accesses(hits+misses)
system.cpu0.dcache.ReadReq_miss_rate::.cpu0.data     0.000897                       # miss rate for ReadReq accesses
system.cpu0.dcache.ReadReq_miss_rate::total     0.000897                       # miss rate for ReadReq accesses
system.cpu0.dcache.ReadReq_avg_miss_latency::.cpu0.data 83699.386503                       # average ReadReq miss latency
system.cpu0.dcache.ReadReq_avg_miss_latency::total 83699.386503                       # average ReadReq miss latency
system.cpu0.dcache.ReadReq_mshr_hits::.cpu0.data           10                       # number of ReadReq MSHR hits
system.cpu0.dcache.ReadReq_mshr_hits::total           10                       # number of ReadReq MSHR hits
system.cpu0.dcache.ReadReq_mshr_misses::.cpu0.data          153                       # number of ReadReq MSHR misses
system.cpu0.dcache.ReadReq_mshr_misses::total          153                       # number of ReadReq MSHR misses
system.cpu0.dcache.ReadReq_mshr_miss_latency::.cpu0.data     12603000                       # number of ReadReq MSHR miss cycles
system.cpu0.dcache.ReadReq_mshr_miss_latency::total     12603000                       # number of ReadReq MSHR miss cycles
system.cpu0.dcache.ReadReq_mshr_miss_rate::.cpu0.data     0.000842                       # mshr miss rate for ReadReq accesses
system.cpu0.dcache.ReadReq_mshr_miss_rate::total     0.000842                       # mshr miss rate for ReadReq accesses
system.cpu0.dcache.ReadReq_avg_mshr_miss_latency::.cpu0.data 82372.549020                       # average ReadReq mshr miss latency
system.cpu0.dcache.ReadReq_avg_mshr_miss_latency::total 82372.549020                       # average ReadReq mshr miss latency
system.cpu0.dcache.WriteReq_hits::.cpu0.data       139955                       # number of WriteReq hits
system.cpu0.dcache.WriteReq_hits::total        139955                       # number of WriteReq hits
system.cpu0.dcache.WriteReq_misses::.cpu0.data         3044                       # number of WriteReq misses
system.cpu0.dcache.WriteReq_misses::total         3044                       # number of WriteReq misses
system.cpu0.dcache.WriteReq_miss_latency::.cpu0.data    238434000                       # number of WriteReq miss cycles
system.cpu0.dcache.WriteReq_miss_latency::total    238434000                       # number of WriteReq miss cycles
system.cpu0.dcache.WriteReq_accesses::.cpu0.data       142999                       # number of WriteReq accesses(hits+misses)
system.cpu0.dcache.WriteReq_accesses::total       142999                       # number of WriteReq accesses(hits+misses)
system.cpu0.dcache.WriteReq_miss_rate::.cpu0.data     0.021287                       # miss rate for WriteReq accesses
system.cpu0.dcache.WriteReq_miss_rate::total     0.021287                       # miss rate for WriteReq accesses
system.cpu0.dcache.WriteReq_avg_miss_latency::.cpu0.data 78329.172142                       # average WriteReq miss latency
system.cpu0.dcache.WriteReq_avg_miss_latency::total 78329.172142                       # average WriteReq miss latency
system.cpu0.dcache.WriteReq_mshr_hits::.cpu0.data         1388                       # number of WriteReq MSHR hits
system.cpu0.dcache.WriteReq_mshr_hits::total         1388                       # number of WriteReq MSHR hits
system.cpu0.dcache.WriteReq_mshr_misses::.cpu0.data         1656                       # number of WriteReq MSHR misses
system.cpu0.dcache.WriteReq_mshr_misses::total         1656                       # number of WriteReq MSHR misses
system.cpu0.dcache.WriteReq_mshr_miss_latency::.cpu0.data    129895500                       # number of WriteReq MSHR miss cycles
system.cpu0.dcache.WriteReq_mshr_miss_latency::total    129895500                       # number of WriteReq MSHR miss cycles
system.cpu0.dcache.WriteReq_mshr_miss_rate::.cpu0.data     0.011581                       # mshr miss rate for WriteReq accesses
system.cpu0.dcache.WriteReq_mshr_miss_rate::total     0.011581                       # mshr miss rate for WriteReq accesses
system.cpu0.dcache.WriteReq_avg_mshr_miss_latency::.cpu0.data 78439.311594                       # average WriteReq mshr miss latency
system.cpu0.dcache.WriteReq_avg_mshr_miss_latency::total 78439.311594                       # average WriteReq mshr miss latency
system.cpu0.dcache.SoftPFReq_hits::.cpu0.data           22                       # number of SoftPFReq hits
system.cpu0.dcache.SoftPFReq_hits::total           22                       # number of SoftPFReq hits
system.cpu0.dcache.SoftPFReq_misses::.cpu0.data           14                       # number of SoftPFReq misses
system.cpu0.dcache.SoftPFReq_misses::total           14                       # number of SoftPFReq misses
system.cpu0.dcache.SoftPFReq_accesses::.cpu0.data           36                       # number of SoftPFReq accesses(hits+misses)
system.cpu0.dcache.SoftPFReq_accesses::total           36                       # number of SoftPFReq accesses(hits+misses)
system.cpu0.dcache.SoftPFReq_miss_rate::.cpu0.data     0.388889                       # miss rate for SoftPFReq accesses
system.cpu0.dcache.SoftPFReq_miss_rate::total     0.388889                       # miss rate for SoftPFReq accesses
system.cpu0.dcache.SoftPFReq_mshr_misses::.cpu0.data           10                       # number of SoftPFReq MSHR misses
system.cpu0.dcache.SoftPFReq_mshr_misses::total           10                       # number of SoftPFReq MSHR misses
system.cpu0.dcache.SoftPFReq_mshr_miss_latency::.cpu0.data      1041000                       # number of SoftPFReq MSHR miss cycles
system.cpu0.dcache.SoftPFReq_mshr_miss_latency::total      1041000                       # number of SoftPFReq MSHR miss cycles
system.cpu0.dcache.SoftPFReq_mshr_miss_rate::.cpu0.data     0.277778                       # mshr miss rate for SoftPFReq accesses
system.cpu0.dcache.SoftPFReq_mshr_miss_rate::total     0.277778                       # mshr miss rate for SoftPFReq accesses
system.cpu0.dcache.SoftPFReq_avg_mshr_miss_latency::.cpu0.data       104100                       # average SoftPFReq mshr miss latency
system.cpu0.dcache.SoftPFReq_avg_mshr_miss_latency::total       104100                       # average SoftPFReq mshr miss latency
system.cpu0.dcache.LoadLockedReq_hits::.cpu0.data         1021                       # number of LoadLockedReq hits
system.cpu0.dcache.LoadLockedReq_hits::total         1021                       # number of LoadLockedReq hits
system.cpu0.dcache.LoadLockedReq_misses::.cpu0.data            2                       # number of LoadLockedReq misses
system.cpu0.dcache.LoadLockedReq_misses::total            2                       # number of LoadLockedReq misses
system.cpu0.dcache.LoadLockedReq_miss_latency::.cpu0.data       177000                       # number of LoadLockedReq miss cycles
system.cpu0.dcache.LoadLockedReq_miss_latency::total       177000                       # number of LoadLockedReq miss cycles
system.cpu0.dcache.LoadLockedReq_accesses::.cpu0.data         1023                       # number of LoadLockedReq accesses(hits+misses)
system.cpu0.dcache.LoadLockedReq_accesses::total         1023                       # number of LoadLockedReq accesses(hits+misses)
system.cpu0.dcache.LoadLockedReq_miss_rate::.cpu0.data     0.001955                       # miss rate for LoadLockedReq accesses
system.cpu0.dcache.LoadLockedReq_miss_rate::total     0.001955                       # miss rate for LoadLockedReq accesses
system.cpu0.dcache.LoadLockedReq_avg_miss_latency::.cpu0.data        88500                       # average LoadLockedReq miss latency
system.cpu0.dcache.LoadLockedReq_avg_miss_latency::total        88500                       # average LoadLockedReq miss latency
system.cpu0.dcache.LoadLockedReq_mshr_misses::.cpu0.data            2                       # number of LoadLockedReq MSHR misses
system.cpu0.dcache.LoadLockedReq_mshr_misses::total            2                       # number of LoadLockedReq MSHR misses
system.cpu0.dcache.LoadLockedReq_mshr_miss_latency::.cpu0.data       175000                       # number of LoadLockedReq MSHR miss cycles
system.cpu0.dcache.LoadLockedReq_mshr_miss_latency::total       175000                       # number of LoadLockedReq MSHR miss cycles
[...]
system.mem_ctrls.wrQLenPdf::48                      0                       # What write queue length does an incoming req see
system.mem_ctrls.wrQLenPdf::49                      0                       # What write queue length does an incoming req see
system.mem_ctrls.wrQLenPdf::50                      0                       # What write queue length does an incoming req see
system.mem_ctrls.wrQLenPdf::51                      0                       # What write queue length does an incoming req see
system.mem_ctrls.wrQLenPdf::52                      0                       # What write queue length does an incoming req see
system.mem_ctrls.wrQLenPdf::53                      0                       # What write queue length does an incoming req see
system.mem_ctrls.wrQLenPdf::54                      0                       # What write queue length does an incoming req see
system.mem_ctrls.wrQLenPdf::55                      0                       # What write queue length does an incoming req see
system.mem_ctrls.wrQLenPdf::56                      0                       # What write queue length does an incoming req see
system.mem_ctrls.wrQLenPdf::57                      0                       # What write queue length does an incoming req see
system.mem_ctrls.wrQLenPdf::58                      0                       # What write queue length does an incoming req see
system.mem_ctrls.wrQLenPdf::59                      0                       # What write queue length does an incoming req see
system.mem_ctrls.wrQLenPdf::60                      0                       # What write queue length does an incoming req see
system.mem_ctrls.wrQLenPdf::61                      0                       # What write queue length does an incoming req see
system.mem_ctrls.wrQLenPdf::62                      0                       # What write queue length does an incoming req see
system.mem_ctrls.wrQLenPdf::63                      0                       # What write queue length does an incoming req see
system.mem_ctrls.bytesPerActivate::samples          728                       # Bytes accessed per row activation
system.mem_ctrls.bytesPerActivate::mean    267.604396                       # Bytes accessed per row activation
system.mem_ctrls.bytesPerActivate::gmean   184.674550                       # Bytes accessed per row activation
system.mem_ctrls.bytesPerActivate::stdev   223.273378                       # Bytes accessed per row activation
system.mem_ctrls.bytesPerActivate::0-127          250     34.34%     34.34% # Bytes accessed per row activation
system.mem_ctrls.bytesPerActivate::128-255          128     17.58%     51.92% # Bytes accessed per row activation
system.mem_ctrls.bytesPerActivate::256-383          133     18.27%     70.19% # Bytes accessed per row activation
system.mem_ctrls.bytesPerActivate::384-511           96     13.19%     83.38% # Bytes accessed per row activation
system.mem_ctrls.bytesPerActivate::512-639           68      9.34%     92.72% # Bytes accessed per row activation
system.mem_ctrls.bytesPerActivate::640-767           29      3.98%     96.70% # Bytes accessed per row activation
system.mem_ctrls.bytesPerActivate::768-895            6      0.82%     97.53% # Bytes accessed per row activation
system.mem_ctrls.bytesPerActivate::896-1023            5      0.69%     98.21% # Bytes accessed per row activation
system.mem_ctrls.bytesPerActivate::1024-1151           13      1.79%    100.00% # Bytes accessed per row activation
system.mem_ctrls.bytesPerActivate::total          728                       # Bytes accessed per row activation
system.mem_ctrls.rdPerTurnAround::samples            1                       # Reads before turning the bus around for writes
system.mem_ctrls.rdPerTurnAround::mean           2956                       # Reads before turning the bus around for writes
system.mem_ctrls.rdPerTurnAround::gmean   2956.000000                       # Reads before turning the bus around for writes
system.mem_ctrls.rdPerTurnAround::stdev           nan                       # Reads before turning the bus around for writes
system.mem_ctrls.rdPerTurnAround::2944-3071            1    100.00%    100.00% # Reads before turning the bus around for writes
system.mem_ctrls.rdPerTurnAround::total             1                       # Reads before turning the bus around for writes
system.mem_ctrls.wrPerTurnAround::samples            1                       # Writes before turning the bus around for reads
system.mem_ctrls.wrPerTurnAround::mean             16                       # Writes before turning the bus around for reads
system.mem_ctrls.wrPerTurnAround::gmean     16.000000                       # Writes before turning the bus around for reads
system.mem_ctrls.wrPerTurnAround::stdev           nan                       # Writes before turning the bus around for reads
system.mem_ctrls.wrPerTurnAround::16                1    100.00%    100.00% # Writes before turning the bus around for reads
system.mem_ctrls.wrPerTurnAround::total             1                       # Writes before turning the bus around for reads
system.mem_ctrls.bytesReadDRAM                 193792                       # Total number of bytes read from DRAM
system.mem_ctrls.bytesReadWrQ                       0                       # Total number of bytes read from write queue
system.mem_ctrls.bytesWritten                    1024                       # Total number of bytes written to DRAM
system.mem_ctrls.bytesReadSys                  193856                       # Total read bytes from the system interface side
system.mem_ctrls.bytesWrittenSys                 3072                       # Total written bytes from the system interface side
system.mem_ctrls.avgRdBW                       292.76                       # Average DRAM read bandwidth in MiByte/s
system.mem_ctrls.avgWrBW                         1.55                       # Average achieved write bandwidth in MiByte/s
system.mem_ctrls.avgRdBWSys                    292.86                       # Average system read bandwidth in MiByte/s
system.mem_ctrls.avgWrBWSys                      4.64                       # Average system write bandwidth in MiByte/s
system.mem_ctrls.peakBW                      12800.00                       # Theoretical peak bandwidth in MiByte/s
system.mem_ctrls.busUtil                         2.30                       # Data bus utilization in percentage
system.mem_ctrls.busUtilRead                     2.29                       # Data bus utilization in percentage for reads
system.mem_ctrls.busUtilWrite                    0.01                       # Data bus utilization in percentage for writes
system.mem_ctrls.totGap                     661830000                       # Total gap between requests
system.mem_ctrls.avgGap                     215089.37                       # Average gap between requests
system.mem_ctrls.masterReadBytes::.cpu0.inst        29376                       # Per-master bytes read from memory
system.mem_ctrls.masterReadBytes::.cpu0.data       114944                       # Per-master bytes read from memory
system.mem_ctrls.masterReadBytes::.cpu1.inst        34816                       # Per-master bytes read from memory
system.mem_ctrls.masterReadBytes::.cpu1.data        14656                       # Per-master bytes read from memory
system.mem_ctrls.masterWriteBytes::.writebacks         1024                       # Per-master bytes write to memory
system.mem_ctrls.masterReadRate::.cpu0.inst 44378208.812947876751                       # Per-master bytes read from memory rate (Bytes/sec)
system.mem_ctrls.masterReadRate::.cpu0.data 173645453.220162034035                       # Per-master bytes read from memory rate (Bytes/sec)
system.mem_ctrls.masterReadRate::.cpu1.inst 52596395.630160443485                       # Per-master bytes read from memory rate (Bytes/sec)
system.mem_ctrls.masterReadRate::.cpu1.data 22140762.131078567356                       # Per-master bytes read from memory rate (Bytes/sec)
system.mem_ctrls.masterWriteRate::.writebacks 1546952.812651777640                       # Per-master bytes write to memory rate (Bytes/sec)
system.mem_ctrls.masterReadAccesses::.cpu0.inst          459                       # Per-master read serviced memory accesses
system.mem_ctrls.masterReadAccesses::.cpu0.data         1797                       # Per-master read serviced memory accesses
system.mem_ctrls.masterReadAccesses::.cpu1.inst          544                       # Per-master read serviced memory accesses
system.mem_ctrls.masterReadAccesses::.cpu1.data          229                       # Per-master read serviced memory accesses
system.mem_ctrls.masterWriteAccesses::.writebacks           48                       # Per-master write serviced memory accesses
system.mem_ctrls.masterReadTotalLat::.cpu0.inst     13831750                       # Per-master read total memory access latency
system.mem_ctrls.masterReadTotalLat::.cpu0.data     48618250                       # Per-master read total memory access latency
system.mem_ctrls.masterReadTotalLat::.cpu1.inst     15909250                       # Per-master read total memory access latency
system.mem_ctrls.masterReadTotalLat::.cpu1.data      7336000                       # Per-master read total memory access latency
system.mem_ctrls.masterWriteTotalLat::.writebacks   5290005000                       # Per-master write total memory access latency
system.mem_ctrls.masterReadAvgLat::.cpu0.inst     30134.53                       # Per-master read average memory access latency
system.mem_ctrls.masterReadAvgLat::.cpu0.data     27055.23                       # Per-master read average memory access latency
system.mem_ctrls.masterReadAvgLat::.cpu1.inst     29244.94                       # Per-master read average memory access latency
system.mem_ctrls.masterReadAvgLat::.cpu1.data     32034.93                       # Per-master read average memory access latency
system.mem_ctrls.masterWriteAvgLat::.writebacks 110208437.50                       # Per-master write average memory access latency
system.mem_ctrls.pageHitRate                    75.27                       # Row buffer hit rate, read and write combined
system.mem_ctrls.rank1.actEnergy              2470440                       # Energy for activate commands per rank (pJ)
system.mem_ctrls.rank1.preEnergy              1313070                       # Energy for precharge commands per rank (pJ)
system.mem_ctrls.rank1.readEnergy             8039640                       # Energy for read commands per rank (pJ)
system.mem_ctrls.rank1.writeEnergy                  0                       # Energy for write commands per rank (pJ)
system.mem_ctrls.rank1.refreshEnergy     52244400.000000                       # Energy for refresh commands per rank (pJ)
system.mem_ctrls.rank1.actBackEnergy        280058670                       # Energy for active background per rank (pJ)
system.mem_ctrls.rank1.preBackEnergy         18404160                       # Energy for precharge background per rank (pJ)
system.mem_ctrls.rank1.actPowerDownEnergy            0                       # Energy for active power-down per rank (pJ)
system.mem_ctrls.rank1.prePowerDownEnergy            0                       # Energy for precharge power-down per rank (pJ)
system.mem_ctrls.rank1.selfRefreshEnergy            0                       # Energy for self refresh per rank (pJ)
system.mem_ctrls.rank1.totalEnergy          362530380                       # Total energy per rank (pJ)
system.mem_ctrls.rank1.averagePower        547.673233                       # Core power per rank (mW)
system.mem_ctrls.rank1.totalIdleTime                0                       # Total Idle time Per DRAM Rank
system.mem_ctrls.rank1.memoryStateTime::IDLE     45564500                       # Time in different power states
system.mem_ctrls.rank1.memoryStateTime::REF     21941500                       # Time in different power states
system.mem_ctrls.rank1.memoryStateTime::SREF            0                       # Time in different power states
system.mem_ctrls.rank1.memoryStateTime::PRE_PDN            0                       # Time in different power states
system.mem_ctrls.rank1.memoryStateTime::ACT    594440500                       # Time in different power states
system.mem_ctrls.rank1.memoryStateTime::ACT_PDN            0                       # Time in different power states
system.mem_ctrls.rank0.actEnergy              2727480                       # Energy for activate commands per rank (pJ)
system.mem_ctrls.rank0.preEnergy              1449690                       # Energy for precharge commands per rank (pJ)
system.mem_ctrls.rank0.readEnergy            13580280                       # Energy for read commands per rank (pJ)
system.mem_ctrls.rank0.writeEnergy              83520                       # Energy for write commands per rank (pJ)
system.mem_ctrls.rank0.refreshEnergy     52244400.000000                       # Energy for refresh commands per rank (pJ)
system.mem_ctrls.rank0.actBackEnergy        292073130                       # Energy for active background per rank (pJ)
system.mem_ctrls.rank0.preBackEnergy          8286720                       # Energy for precharge background per rank (pJ)
system.mem_ctrls.rank0.actPowerDownEnergy            0                       # Energy for active power-down per rank (pJ)
system.mem_ctrls.rank0.prePowerDownEnergy            0                       # Energy for precharge power-down per rank (pJ)
system.mem_ctrls.rank0.selfRefreshEnergy            0                       # Energy for self refresh per rank (pJ)
system.mem_ctrls.rank0.totalEnergy          370445220                       # Total energy per rank (pJ)
system.mem_ctrls.rank0.averagePower        559.630151                       # Core power per rank (mW)
system.mem_ctrls.rank0.totalIdleTime                0                       # Total Idle time Per DRAM Rank
system.mem_ctrls.rank0.memoryStateTime::IDLE     19155500                       # Time in different power states
system.mem_ctrls.rank0.memoryStateTime::REF     21941500                       # Time in different power states
system.mem_ctrls.rank0.memoryStateTime::SREF            0                       # Time in different power states
system.mem_ctrls.rank0.memoryStateTime::PRE_PDN            0                       # Time in different power states
system.mem_ctrls.rank0.memoryStateTime::ACT    620849500                       # Time in different power states
system.mem_ctrls.rank0.memoryStateTime::ACT_PDN            0                       # Time in different power states
system.cpu_clk_domain.clock                       500                       # Clock period in ticks
system.tol2bus.pwrStateResidencyTicks::UNDEFINED    661946500                       # Cumulative time (in ticks) in various power states
system.tol2bus.trans_dist::ReadResp              2862                       # Transaction distribution
system.tol2bus.trans_dist::WritebackDirty          735                       # Transaction distribution
system.tol2bus.trans_dist::WritebackClean         1833                       # Transaction distribution
system.tol2bus.trans_dist::CleanEvict             666                       # Transaction distribution
system.tol2bus.trans_dist::ReadExReq             1777                       # Transaction distribution
system.tol2bus.trans_dist::ReadExResp            1776                       # Transaction distribution
system.tol2bus.trans_dist::ReadCleanReq          2559                       # Transaction distribution
system.tol2bus.trans_dist::ReadSharedReq          303                       # Transaction distribution
system.tol2bus.pkt_count_system.cpu0.icache.mem_side::system.l2.cpu_side         5567                       # Packet count per connected master and slave (bytes)
system.tol2bus.pkt_count_system.cpu0.dcache.mem_side::system.l2.cpu_side         4437                       # Packet count per connected master and slave (bytes)
system.tol2bus.pkt_count_system.cpu1.icache.mem_side::system.l2.cpu_side         1384                       # Packet count per connected master and slave (bytes)
system.tol2bus.pkt_count_system.cpu1.dcache.mem_side::system.l2.cpu_side          527                       # Packet count per connected master and slave (bytes)
system.tol2bus.pkt_count::total                 11915                       # Packet count per connected master and slave (bytes)
system.tol2bus.pkt_size_system.cpu0.icache.mem_side::system.l2.cpu_side       230144                       # Cumulative packet size per connected master and slave (bytes)
system.tol2bus.pkt_size_system.cpu0.dcache.mem_side::system.l2.cpu_side       160384                       # Cumulative packet size per connected master and slave (bytes)
system.tol2bus.pkt_size_system.cpu1.icache.mem_side::system.l2.cpu_side        50944                       # Cumulative packet size per connected master and slave (bytes)
system.tol2bus.pkt_size_system.cpu1.dcache.mem_side::system.l2.cpu_side        16640                       # Cumulative packet size per connected master and slave (bytes)
system.tol2bus.pkt_size::total                 458112                       # Cumulative packet size per connected master and slave (bytes)
system.tol2bus.snoops                             596                       # Total snoops (count)
system.tol2bus.snoopTraffic                      3072                       # Total snoop traffic (bytes)
system.tol2bus.snoop_fanout::samples             5235                       # Request fanout histogram
system.tol2bus.snoop_fanout::mean            0.101624                       # Request fanout histogram
system.tol2bus.snoop_fanout::stdev           0.305327                       # Request fanout histogram
system.tol2bus.snoop_fanout::underflows             0      0.00%      0.00% # Request fanout histogram
system.tol2bus.snoop_fanout::0                   4708     89.93%     89.93% # Request fanout histogram
system.tol2bus.snoop_fanout::1                    522      9.97%     99.90% # Request fanout histogram
system.tol2bus.snoop_fanout::2                      5      0.10%    100.00% # Request fanout histogram
system.tol2bus.snoop_fanout::3                      0      0.00%    100.00% # Request fanout histogram
system.tol2bus.snoop_fanout::4                      0      0.00%    100.00% # Request fanout histogram
system.tol2bus.snoop_fanout::overflows              0      0.00%    100.00% # Request fanout histogram
system.tol2bus.snoop_fanout::min_value              0                       # Request fanout histogram
system.tol2bus.snoop_fanout::max_value              2                       # Request fanout histogram
system.tol2bus.snoop_fanout::total               5235                       # Request fanout histogram
system.tol2bus.reqLayer0.occupancy            6158500                       # Layer occupancy (ticks)
system.tol2bus.reqLayer0.utilization              0.9                       # Layer utilization (%)
system.tol2bus.respLayer5.occupancy            392991                       # Layer occupancy (ticks)
system.tol2bus.respLayer5.utilization             0.1                       # Layer utilization (%)
system.tol2bus.respLayer4.occupancy            882000                       # Layer occupancy (ticks)
system.tol2bus.respLayer4.utilization             0.1                       # Layer utilization (%)
system.tol2bus.respLayer1.occupancy           2732994                       # Layer occupancy (ticks)
system.tol2bus.respLayer1.utilization             0.4                       # Layer utilization (%)
system.tol2bus.respLayer0.occupancy           2956500                       # Layer occupancy (ticks)
system.tol2bus.respLayer0.utilization             0.4                       # Layer utilization (%)

---------- End Simulation Statistics   ----------
