
---------- Begin Simulation Statistics ----------
final_tick                                  292561000                       # Number of ticks from beginning of simulation (restored from checkpoints and never reset)
host_inst_rate                                  68130                       # Simulator instruction rate (inst/s)
host_mem_usage                                 718096                       # Number of bytes of host memory used
host_op_rate                                    72126                       # Simulator op (including micro ops) rate (op/s)
host_seconds                                    26.32                       # Real time elapsed on the host
host_tick_rate                               11114714                       # Simulator tick rate (ticks/s)
sim_freq                                 1000000000000                       # Frequency of simulated ticks
sim_insts                                     1793310                       # Number of instructions simulated
sim_ops                                       1898483                       # Number of ops (including micro ops) simulated
sim_seconds                                  0.000293                       # Number of seconds simulated
sim_ticks                                   292561000                       # Number of ticks simulated
system.cpu0.branchPred.BTBCorrect                   0                       # Number of correct BTB predictions (this stat may not work properly.
system.cpu0.branchPred.BTBHitPct            90.604736                       # BTB Hit Percentage
system.cpu0.branchPred.BTBHits                  68605                       # Number of BTB hits
system.cpu0.branchPred.BTBLookups               75719                       # Number of BTB lookups
system.cpu0.branchPred.RASInCorrect                 0                       # Number of incorrect RAS predictions.
system.cpu0.branchPred.condIncorrect             3734                       # Number of conditional branches incorrect
system.cpu0.branchPred.condPredicted           141725                       # Number of conditional branches predicted
system.cpu0.branchPred.indirectHits              2768                       # Number of indirect target hits.
system.cpu0.branchPred.indirectLookups           2928                       # Number of indirect predictor lookups.
system.cpu0.branchPred.indirectMisses             160                       # Number of indirect misses.
system.cpu0.branchPred.lookups                 182296                       # Number of BP lookups
system.cpu0.branchPred.usedRAS                  11934                       # Number of times the RAS was used to get a target.
system.cpu0.branchPredindirectMispredicted           65                       # Number of mispredicted indirect branches.
system.cpu0.cc_regfile_reads                  3180477                       # number of cc regfile reads
system.cpu0.cc_regfile_writes                  525851                       # number of cc regfile writes
system.cpu0.commit.amos                             0                       # Number of atomic instructions committed
system.cpu0.commit.branchMispredicts             2563                       # The number of times a branch was mispredicted
system.cpu0.commit.branches                    161445                       # Number of branches committed
system.cpu0.commit.bw_lim_events                21366                       # number cycles where commit BW limit reached
system.cpu0.commit.commitNonSpecStalls           1934                       # The number of times commit has been forced to stall to communicate backwards
system.cpu0.commit.commitSquashedInsts          32347                       # The number of squashed insts skipped by commit
system.cpu0.commit.committedInsts              793308                       # Number of instructions committed
system.cpu0.commit.committedOps                874487                       # Number of ops (including micro ops) committed
system.cpu0.commit.committed_per_cycle::samples       544163                       # Number of insts commited each cycle
system.cpu0.commit.committed_per_cycle::mean     1.607031                       # Number of insts commited each cycle
system.cpu0.commit.committed_per_cycle::stdev     2.106373                       # Number of insts commited each cycle
system.cpu0.commit.committed_per_cycle::underflows            0      0.00%      0.00% # Number of insts commited each cycle
system.cpu0.commit.committed_per_cycle::0       224718     41.30%     41.30% # Number of insts commited each cycle
system.cpu0.commit.committed_per_cycle::1       129370     23.77%     65.07% # Number of insts commited each cycle
system.cpu0.commit.committed_per_cycle::2        58643     10.78%     75.85% # Number of insts commited each cycle
system.cpu0.commit.committed_per_cycle::3        49307      9.06%     84.91% # Number of insts commited each cycle
system.cpu0.commit.committed_per_cycle::4        24844      4.57%     89.47% # Number of insts commited each cycle
system.cpu0.commit.committed_per_cycle::5        15294      2.81%     92.28% # Number of insts commited each cycle
system.cpu0.commit.committed_per_cycle::6        11211      2.06%     94.34% # Number of insts commited each cycle
system.cpu0.commit.committed_per_cycle::7         9410      1.73%     96.07% # Number of insts commited each cycle
system.cpu0.commit.committed_per_cycle::8        21366      3.93%    100.00% # Number of insts commited each cycle
system.cpu0.commit.committed_per_cycle::overflows            0      0.00%    100.00% # Number of insts commited each cycle
system.cpu0.commit.committed_per_cycle::min_value            0                       # Number of insts commited each cycle
system.cpu0.commit.committed_per_cycle::max_value            8                       # Number of insts commited each cycle
system.cpu0.commit.committed_per_cycle::total       544163                       # Number of insts commited each cycle
system.cpu0.commit.fp_insts                         0                       # Number of committed floating point instructions.
system.cpu0.commit.function_calls                9767                       # Number of function calls committed.
system.cpu0.commit.int_insts                   712953                       # Number of committed integer instructions.
system.cpu0.commit.loads                       172075                       # Number of loads committed
system.cpu0.commit.membars                        956                       # Number of memory barriers committed
system.cpu0.commit.op_class_0::No_OpClass            0      0.00%      0.00% # Class of committed instruction
system.cpu0.commit.op_class_0::IntAlu          558611     63.88%     63.88% # Class of committed instruction
system.cpu0.commit.op_class_0::IntMult           2747      0.31%     64.19% # Class of committed instruction
system.cpu0.commit.op_class_0::IntDiv               0      0.00%     64.19% # Class of committed instruction
system.cpu0.commit.op_class_0::FloatAdd             0      0.00%     64.19% # Class of committed instruction
system.cpu0.commit.op_class_0::FloatCmp             0      0.00%     64.19% # Class of committed instruction
system.cpu0.commit.op_class_0::FloatCvt             0      0.00%     64.19% # Class of committed instruction
system.cpu0.commit.op_class_0::FloatMult            0      0.00%     64.19% # Class of committed instruction
system.cpu0.commit.op_class_0::FloatMultAcc            0      0.00%     64.19% # Class of committed instruction
system.cpu0.commit.op_class_0::FloatDiv             0      0.00%     64.19% # Class of committed instruction
system.cpu0.commit.op_class_0::FloatMisc            0      0.00%     64.19% # Class of committed instruction
system.cpu0.commit.op_class_0::FloatSqrt            0      0.00%     64.19% # Class of committed instruction
system.cpu0.commit.op_class_0::SimdAdd              0      0.00%     64.19% # Class of committed instruction
system.cpu0.commit.op_class_0::SimdAddAcc            0      0.00%     64.19% # Class of committed instruction
system.cpu0.commit.op_class_0::SimdAlu              0      0.00%     64.19% # Class of committed instruction
system.cpu0.commit.op_class_0::SimdCmp              0      0.00%     64.19% # Class of committed instruction
system.cpu0.commit.op_class_0::SimdCvt              0      0.00%     64.19% # Class of committed instruction
system.cpu0.commit.op_class_0::SimdMisc             0      0.00%     64.19% # Class of committed instruction
system.cpu0.commit.op_class_0::SimdMult             0      0.00%     64.19% # Class of committed instruction
system.cpu0.commit.op_class_0::SimdMultAcc            0      0.00%     64.19% # Class of committed instruction
system.cpu0.commit.op_class_0::SimdShift            0      0.00%     64.19% # Class of committed instruction
system.cpu0.commit.op_class_0::SimdShiftAcc            0      0.00%     64.19% # Class of committed instruction
system.cpu0.commit.op_class_0::SimdDiv              0      0.00%     64.19% # Class of committed instruction
system.cpu0.commit.op_class_0::SimdSqrt             0      0.00%     64.19% # Class of committed instruction
system.cpu0.commit.op_class_0::SimdFloatAdd            0      0.00%     64.19% # Class of committed instruction
system.cpu0.commit.op_class_0::SimdFloatAlu            0      0.00%     64.19% # Class of committed instruction
system.cpu0.commit.op_class_0::SimdFloatCmp            0      0.00%     64.19% # Class of committed instruction
system.cpu0.commit.op_class_0::SimdFloatCvt            0      0.00%     64.19% # Class of committed instruction
system.cpu0.commit.op_class_0::SimdFloatDiv            0      0.00%     64.19% # Class of committed instruction
system.cpu0.commit.op_class_0::SimdFloatMisc            0      0.00%     64.19% # Class of committed instruction
system.cpu0.commit.op_class_0::SimdFloatMult            0      0.00%     64.19% # Class of committed instruction
system.cpu0.commit.op_class_0::SimdFloatMultAcc            0      0.00%     64.19% # Class of committed instruction
system.cpu0.commit.op_class_0::SimdFloatSqrt            0      0.00%     64.19% # Class of committed instruction
system.cpu0.commit.op_class_0::SimdReduceAdd            0      0.00%     64.19% # Class of committed instruction
system.cpu0.commit.op_class_0::SimdReduceAlu            0      0.00%     64.19% # Class of committed instruction
system.cpu0.commit.op_class_0::SimdReduceCmp            0      0.00%     64.19% # Class of committed instruction
system.cpu0.commit.op_class_0::SimdFloatReduceAdd            0      0.00%     64.19% # Class of committed instruction
system.cpu0.commit.op_class_0::SimdFloatReduceCmp            0      0.00%     64.19% # Class of committed instruction
system.cpu0.commit.op_class_0::SimdAes              0      0.00%     64.19% # Class of committed instruction
system.cpu0.commit.op_class_0::SimdAesMix            0      0.00%     64.19% # Class of committed instruction
system.cpu0.commit.op_class_0::SimdSha1Hash            0      0.00%     64.19% # Class of committed instruction
system.cpu0.commit.op_class_0::SimdSha1Hash2            0      0.00%     64.19% # Class of committed instruction
system.cpu0.commit.op_class_0::SimdSha256Hash            0      0.00%     64.19% # Class of committed instruction
system.cpu0.commit.op_class_0::SimdSha256Hash2            0      0.00%     64.19% # Class of committed instruction
system.cpu0.commit.op_class_0::SimdShaSigma2            0      0.00%     64.19% # Class of committed instruction
system.cpu0.commit.op_class_0::SimdShaSigma3            0      0.00%     64.19% # Class of committed instruction
system.cpu0.commit.op_class_0::SimdPredAlu            0      0.00%     64.19% # Class of committed instruction
system.cpu0.commit.op_class_0::MemRead         172075     19.68%     83.87% # Class of committed instruction
system.cpu0.commit.op_class_0::MemWrite        141054     16.13%    100.00% # Class of committed instruction
system.cpu0.commit.op_class_0::FloatMemRead            0      0.00%    100.00% # Class of committed instruction
system.cpu0.commit.op_class_0::FloatMemWrite            0      0.00%    100.00% # Class of committed instruction
system.cpu0.commit.op_class_0::IprAccess            0      0.00%    100.00% # Class of committed instruction
system.cpu0.commit.op_class_0::InstPrefetch            0      0.00%    100.00% # Class of committed instruction
system.cpu0.commit.op_class_0::total           874487                       # Class of committed instruction
system.cpu0.commit.refs                        313129                       # Number of memory references committed
system.cpu0.commit.swp_count                        0                       # Number of s/w prefetches committed
system.cpu0.commit.vec_insts                        0                       # Number of committed Vector instructions.
system.cpu0.committedInsts                     793308                       # Number of Instructions Simulated
system.cpu0.committedOps                       874487                       # Number of Ops (including micro ops) Simulated
system.cpu0.cpi                              0.737574                       # CPI: Cycles Per Instruction
system.cpu0.cpi_total                        0.737574                       # CPI: Total CPI of All Threads
system.cpu0.decode.BlockedCycles               144008                       # Number of cycles decode is blocked
system.cpu0.decode.BranchMispred                 1171                       # Number of times decode detected a branch misprediction
system.cpu0.decode.BranchResolved               67783                       # Number of times decode resolved a branch
system.cpu0.decode.DecodedInsts                928013                       # Number of instructions handled by decode
system.cpu0.decode.IdleCycles                   42169                       # Number of cycles decode is idle
system.cpu0.decode.RunCycles                   329054                       # Number of cycles decode is running
system.cpu0.decode.SquashCycles                  2617                       # Number of cycles decode is squashing
system.cpu0.decode.SquashedInsts                19555                       # Number of squashed instructions handled by decode
system.cpu0.decode.UnblockCycles                31690                       # Number of cycles decode is unblocking
system.cpu0.dtb.accesses                            0                       # DTB accesses
system.cpu0.dtb.align_faults                        0                       # Number of TLB faults due to alignment restrictions
system.cpu0.dtb.domain_faults                       0                       # Number of TLB faults due to domain restrictions
system.cpu0.dtb.flush_entries                       0                       # Number of entries that have been flushed from TLB
system.cpu0.dtb.flush_tlb                           0                       # Number of times complete TLB was flushed
system.cpu0.dtb.flush_tlb_asid                      0                       # Number of times TLB was flushed by ASID
system.cpu0.dtb.flush_tlb_mva                       0                       # Number of times TLB was flushed by MVA
system.cpu0.dtb.flush_tlb_mva_asid                  0                       # Number of times TLB was flushed by MVA & ASID
system.cpu0.dtb.hits                                0                       # DTB hits
system.cpu0.dtb.inst_accesses                       0                       # ITB inst accesses
system.cpu0.dtb.inst_hits                           0                       # ITB inst hits
system.cpu0.dtb.inst_misses                         0                       # ITB inst misses
system.cpu0.dtb.misses                              0                       # DTB misses
system.cpu0.dtb.perms_faults                        0                       # Number of TLB faults due to permissions restrictions
system.cpu0.dtb.prefetch_faults                     0                       # Number of TLB faults due to prefetch
system.cpu0.dtb.read_accesses                       0                       # DTB read accesses
system.cpu0.dtb.read_hits                           0                       # DTB read hits
system.cpu0.dtb.read_misses                         0                       # DTB read misses
system.cpu0.dtb.stage2_mmu.stage2_tlb.accesses            0                       # DTB accesses
system.cpu0.dtb.stage2_mmu.stage2_tlb.align_faults            0                       # Number of TLB faults due to alignment restrictions
system.cpu0.dtb.stage2_mmu.stage2_tlb.domain_faults            0                       # Number of TLB faults due to domain restrictions
system.cpu0.dtb.stage2_mmu.stage2_tlb.flush_entries            0                       # Number of entries that have been flushed from TLB
system.cpu0.dtb.stage2_mmu.stage2_tlb.flush_tlb            0                       # Number of times complete TLB was flushed
system.cpu0.dtb.stage2_mmu.stage2_tlb.flush_tlb_asid            0                       # Number of times TLB was flushed by ASID
system.cpu0.dtb.stage2_mmu.stage2_tlb.flush_tlb_mva            0                       # Number of times TLB was flushed by MVA
system.cpu0.dtb.stage2_mmu.stage2_tlb.flush_tlb_mva_asid            0                       # Number of times TLB was flushed by MVA & ASID
system.cpu0.dtb.stage2_mmu.stage2_tlb.hits            0                       # DTB hits
system.cpu0.dtb.stage2_mmu.stage2_tlb.inst_accesses            0                       # ITB inst accesses
system.cpu0.dtb.stage2_mmu.stage2_tlb.inst_hits            0                       # ITB inst hits
system.cpu0.dtb.stage2_mmu.stage2_tlb.inst_misses            0                       # ITB inst misses
system.cpu0.dtb.stage2_mmu.stage2_tlb.misses            0                       # DTB misses
system.cpu0.dtb.stage2_mmu.stage2_tlb.perms_faults            0                       # Number of TLB faults due to permissions restrictions
system.cpu0.dtb.stage2_mmu.stage2_tlb.prefetch_faults            0                       # Number of TLB faults due to prefetch
system.cpu0.dtb.stage2_mmu.stage2_tlb.read_accesses            0                       # DTB read accesses
system.cpu0.dtb.stage2_mmu.stage2_tlb.read_hits            0                       # DTB read hits
system.cpu0.dtb.stage2_mmu.stage2_tlb.read_misses            0                       # DTB read misses
system.cpu0.dtb.stage2_mmu.stage2_tlb.walker.walkRequestOrigin_Requested::Data            0                       # Table walker requests started/completed, data/inst
system.cpu0.dtb.stage2_mmu.stage2_tlb.walker.walkRequestOrigin_Requested::Inst            0                       # Table walker requests started/completed, data/inst
system.cpu0.dtb.stage2_mmu.stage2_tlb.walker.walkRequestOrigin_Requested::total            0                       # Table walker requests started/completed, data/inst
system.cpu0.dtb.stage2_mmu.stage2_tlb.walker.walkRequestOrigin_Completed::Data            0                       # Table walker requests started/completed, data/inst
system.cpu0.dtb.stage2_mmu.stage2_tlb.walker.walkRequestOrigin_Completed::Inst            0                       # Table walker requests started/completed, data/inst
system.cpu0.dtb.stage2_mmu.stage2_tlb.walker.walkRequestOrigin_Completed::total            0                       # Table walker requests started/completed, data/inst
system.cpu0.dtb.stage2_mmu.stage2_tlb.walker.walkRequestOrigin::total            0                       # Table walker requests started/completed, data/inst
system.cpu0.dtb.stage2_mmu.stage2_tlb.walker.walks            0                       # Table walker walks requested
system.cpu0.dtb.stage2_mmu.stage2_tlb.write_accesses            0                       # DTB write accesses
system.cpu0.dtb.stage2_mmu.stage2_tlb.write_hits            0                       # DTB write hits
system.cpu0.dtb.stage2_mmu.stage2_tlb.write_misses            0                       # DTB write misses
system.cpu0.dtb.walker.walkRequestOrigin_Requested::Data            0                       # Table walker requests started/completed, data/inst
system.cpu0.dtb.walker.walkRequestOrigin_Requested::Inst            0                       # Table walker requests started/completed, data/inst
system.cpu0.dtb.walker.walkRequestOrigin_Requested::total            0                       # Table walker requests started/completed, data/inst
system.cpu0.dtb.walker.walkRequestOrigin_Completed::Data            0                       # Table walker requests started/completed, data/inst
system.cpu0.dtb.walker.walkRequestOrigin_Completed::Inst            0                       # Table walker requests started/completed, data/inst
system.cpu0.dtb.walker.walkRequestOrigin_Completed::total            0                       # Table walker requests started/completed, data/inst
system.cpu0.dtb.walker.walkRequestOrigin::total            0                       # Table walker requests started/completed, data/inst
system.cpu0.dtb.walker.walks                        0                       # Table walker walks requested
system.cpu0.dtb.write_accesses                      0                       # DTB write accesses
system.cpu0.dtb.write_hits                          0                       # DTB write hits
system.cpu0.dtb.write_misses                        0                       # DTB write misses
system.cpu0.fetch.Branches                     182296                       # Number of branches that fetch encountered
system.cpu0.fetch.CacheLines                   220375                       # Number of cache lines fetched
system.cpu0.fetch.Cycles                       532940                       # Number of cycles fetch has run and was not squashing or blocked
system.cpu0.fetch.IcacheSquashes                  249                       # Number of outstanding Icache misses that were squashed
system.cpu0.fetch.IcacheWaitRetryStallCycles          421                       # Number of stall cycles due to full MSHR
system.cpu0.fetch.Insts                        894539                       # Number of instructions fetch has processed
system.cpu0.fetch.MiscStallCycles                 114                       # Number of cycles fetch has spent waiting on interrupts, or bad addresses, or out of MSHRs
system.cpu0.fetch.PendingTrapStallCycles           47                       # Number of stall cycles due to pending traps
system.cpu0.fetch.SquashCycles                   7576                       # Number of cycles fetch has spent squashing
system.cpu0.fetch.branchRate                 0.311552                       # Number of branch fetches per cycle
system.cpu0.fetch.icacheStallCycles             12228                       # Number of cycles fetch is stalled on an Icache miss
system.cpu0.fetch.predictedBranches             83307                       # Number of branches that fetch has predicted taken
system.cpu0.fetch.rate                       1.528805                       # Number of inst fetches per cycle
system.cpu0.fetch.rateDist::samples            549538                       # Number of instructions fetched each cycle (Total)
system.cpu0.fetch.rateDist::mean             1.791585                       # Number of instructions fetched each cycle (Total)
system.cpu0.fetch.rateDist::stdev            1.253705                       # Number of instructions fetched each cycle (Total)
system.cpu0.fetch.rateDist::underflows              0      0.00%      0.00% # Number of instructions fetched each cycle (Total)
system.cpu0.fetch.rateDist::0                  141524     25.75%     25.75% # Number of instructions fetched each cycle (Total)
system.cpu0.fetch.rateDist::1                   76504     13.92%     39.67% # Number of instructions fetched each cycle (Total)
system.cpu0.fetch.rateDist::2                   86490     15.74%     55.41% # Number of instructions fetched each cycle (Total)
system.cpu0.fetch.rateDist::3                  245020     44.59%    100.00% # Number of instructions fetched each cycle (Total)
system.cpu0.fetch.rateDist::overflows               0      0.00%    100.00% # Number of instructions fetched each cycle (Total)
system.cpu0.fetch.rateDist::min_value               0                       # Number of instructions fetched each cycle (Total)
system.cpu0.fetch.rateDist::max_value               3                       # Number of instructions fetched each cycle (Total)
system.cpu0.fetch.rateDist::total              549538                       # Number of instructions fetched each cycle (Total)
system.cpu0.idleCycles                          35585                       # Total number of cycles that the CPU has spent unscheduled due to idling
system.cpu0.iew.branchMispredicts                2607                       # Number of branch mispredicts detected at execute
system.cpu0.iew.exec_branches                  163236                       # Number of branches executed
system.cpu0.iew.exec_nop                           38                       # number of nop insts executed
system.cpu0.iew.exec_rate                    1.528180                       # Inst execution rate
system.cpu0.iew.exec_refs                      321744                       # number of memory reference insts executed
system.cpu0.iew.exec_stores                    141845                       # Number of stores executed
system.cpu0.iew.exec_swp                            0                       # number of swp insts executed
system.cpu0.iew.iewBlockCycles                   3043                       # Number of cycles IEW is blocking
system.cpu0.iew.iewBranchMispredictRate      1.597074                       # Percentage of branch mispredicts
system.cpu0.iew.iewBranchPercentage         18.255528                       # Percentage of branches executed
system.cpu0.iew.iewDispLoadInsts               180346                       # Number of dispatched load instructions
system.cpu0.iew.iewDispNonSpecInsts              1002                       # Number of dispatched non-speculative instructions
system.cpu0.iew.iewDispSquashedInsts                0                       # Number of squashed instructions skipped by dispatch
system.cpu0.iew.iewDispStoreInsts              143901                       # Number of dispatched store instructions
system.cpu0.iew.iewDispatchedInsts             911411                       # Number of instructions dispatched to IQ
system.cpu0.iew.iewExecLoadInsts               179899                       # Number of load instructions executed
system.cpu0.iew.iewExecSquashedInsts             5330                       # Number of squashed instructions skipped in execute
system.cpu0.iew.iewExecutedInsts               894173                       # Number of executed instructions
system.cpu0.iew.iewIQFullEvents                     3                       # Number of times the IQ has become full, causing a stall
system.cpu0.iew.iewIdleCycles                       0                       # Number of cycles IEW is idle
system.cpu0.iew.iewLSQFullEvents                 8737                       # Number of times the LSQ has become full, causing a stall
system.cpu0.iew.iewSquashCycles                  2617                       # Number of cycles IEW is squashing
system.cpu0.iew.iewUnblockCycles                 8741                       # Number of cycles IEW is unblocking
system.cpu0.iew.lsq.thread0.blockedLoads            0                       # Number of blocked loads due to partial load-store forwarding
system.cpu0.iew.lsq.thread0.cacheBlocked          136                       # Number of times an access to memory failed due to the cache being blocked
system.cpu0.iew.lsq.thread0.forwLoads           15372                       # Number of loads that had data forwarded from stores
system.cpu0.iew.lsq.thread0.ignoredResponses            1                       # Number of memory responses ignored because the instruction is squashed
system.cpu0.iew.lsq.thread0.invAddrLoads            0                       # Number of loads ignored due to an invalid address
system.cpu0.iew.lsq.thread0.invAddrSwpfs            0                       # Number of software prefetches ignored due to an invalid address
system.cpu0.iew.lsq.thread0.memOrderViolation           39                       # Number of memory ordering violations
system.cpu0.iew.lsq.thread0.rescheduledLoads         1826                       # Number of loads that were rescheduled
system.cpu0.iew.lsq.thread0.squashedLoads         8259                       # Number of loads squashed
system.cpu0.iew.lsq.thread0.squashedStores         2847                       # Number of stores squashed
system.cpu0.iew.memOrderViolationEvents            39                       # Number of memory order violations
system.cpu0.iew.predictedNotTakenIncorrect         2595                       # Number of branches that were predicted not taken incorrectly
system.cpu0.iew.predictedTakenIncorrect            12                       # Number of branches that were predicted taken incorrectly
system.cpu0.iew.wb_consumers                   785148                       # num instructions consuming a value
system.cpu0.iew.wb_count                       889086                       # cumulative count of insts written-back
system.cpu0.iew.wb_fanout                    0.593014                       # average fanout of values written-back
system.cpu0.iew.wb_producers                   465604                       # num instructions producing a value
system.cpu0.iew.wb_rate                      1.519486                       # insts written-back per cycle
system.cpu0.iew.wb_sent                        889741                       # cumulative count of insts sent to commit
system.cpu0.int_regfile_reads                  911443                       # number of integer regfile reads
system.cpu0.int_regfile_writes                 455835                       # number of integer regfile writes
system.cpu0.ipc                              1.355797                       # IPC: Instructions Per Cycle
system.cpu0.ipc_total                        1.355797                       # IPC: Total IPC of All Threads
system.cpu0.iq.FU_type_0::No_OpClass                0      0.00%      0.00% # Type of FU issued
system.cpu0.iq.FU_type_0::IntAlu               573412     63.75%     63.75% # Type of FU issued
system.cpu0.iq.FU_type_0::IntMult                2748      0.31%     64.05% # Type of FU issued
system.cpu0.iq.FU_type_0::IntDiv                    0      0.00%     64.05% # Type of FU issued
system.cpu0.iq.FU_type_0::FloatAdd                  0      0.00%     64.05% # Type of FU issued
system.cpu0.iq.FU_type_0::FloatCmp                  0      0.00%     64.05% # Type of FU issued
system.cpu0.iq.FU_type_0::FloatCvt                  0      0.00%     64.05% # Type of FU issued
system.cpu0.iq.FU_type_0::FloatMult                 0      0.00%     64.05% # Type of FU issued
system.cpu0.iq.FU_type_0::FloatMultAcc              0      0.00%     64.05% # Type of FU issued
system.cpu0.iq.FU_type_0::FloatDiv                  0      0.00%     64.05% # Type of FU issued
system.cpu0.iq.FU_type_0::FloatMisc                 0      0.00%     64.05% # Type of FU issued
system.cpu0.iq.FU_type_0::FloatSqrt                 0      0.00%     64.05% # Type of FU issued
system.cpu0.iq.FU_type_0::SimdAdd                   9      0.00%     64.05% # Type of FU issued
system.cpu0.iq.FU_type_0::SimdAddAcc                2      0.00%     64.05% # Type of FU issued
system.cpu0.iq.FU_type_0::SimdAlu                   0      0.00%     64.05% # Type of FU issued
system.cpu0.iq.FU_type_0::SimdCmp                   0      0.00%     64.05% # Type of FU issued
system.cpu0.iq.FU_type_0::SimdCvt                   0      0.00%     64.05% # Type of FU issued
system.cpu0.iq.FU_type_0::SimdMisc                  0      0.00%     64.05% # Type of FU issued
system.cpu0.iq.FU_type_0::SimdMult                  0      0.00%     64.05% # Type of FU issued
system.cpu0.iq.FU_type_0::SimdMultAcc               0      0.00%     64.05% # Type of FU issued
system.cpu0.iq.FU_type_0::SimdShift                 4      0.00%     64.05% # Type of FU issued
system.cpu0.iq.FU_type_0::SimdShiftAcc              0      0.00%     64.05% # Type of FU issued
system.cpu0.iq.FU_type_0::SimdDiv                   0      0.00%     64.05% # Type of FU issued
system.cpu0.iq.FU_type_0::SimdSqrt                  0      0.00%     64.05% # Type of FU issued
system.cpu0.iq.FU_type_0::SimdFloatAdd              0      0.00%     64.05% # Type of FU issued
system.cpu0.iq.FU_type_0::SimdFloatAlu              0      0.00%     64.05% # Type of FU issued
system.cpu0.iq.FU_type_0::SimdFloatCmp              0      0.00%     64.05% # Type of FU issued
system.cpu0.iq.FU_type_0::SimdFloatCvt              0      0.00%     64.05% # Type of FU issued
system.cpu0.iq.FU_type_0::SimdFloatDiv              0      0.00%     64.05% # Type of FU issued
system.cpu0.iq.FU_type_0::SimdFloatMisc             0      0.00%     64.05% # Type of FU issued
system.cpu0.iq.FU_type_0::SimdFloatMult             0      0.00%     64.05% # Type of FU issued
system.cpu0.iq.FU_type_0::SimdFloatMultAcc            0      0.00%     64.05% # Type of FU issued
system.cpu0.iq.FU_type_0::SimdFloatSqrt             0      0.00%     64.05% # Type of FU issued
system.cpu0.iq.FU_type_0::SimdReduceAdd             0      0.00%     64.05% # Type of FU issued
system.cpu0.iq.FU_type_0::SimdReduceAlu             0      0.00%     64.05% # Type of FU issued
system.cpu0.iq.FU_type_0::SimdReduceCmp             0      0.00%     64.05% # Type of FU issued
system.cpu0.iq.FU_type_0::SimdFloatReduceAdd            0      0.00%     64.05% # Type of FU issued
system.cpu0.iq.FU_type_0::SimdFloatReduceCmp            0      0.00%     64.05% # Type of FU issued
system.cpu0.iq.FU_type_0::SimdAes                   0      0.00%     64.05% # Type of FU issued
system.cpu0.iq.FU_type_0::SimdAesMix                0      0.00%     64.05% # Type of FU issued
system.cpu0.iq.FU_type_0::SimdSha1Hash              0      0.00%     64.05% # Type of FU issued
system.cpu0.iq.FU_type_0::SimdSha1Hash2             0      0.00%     64.05% # Type of FU issued
system.cpu0.iq.FU_type_0::SimdSha256Hash            0      0.00%     64.05% # Type of FU issued
system.cpu0.iq.FU_type_0::SimdSha256Hash2            0      0.00%     64.05% # Type of FU issued
system.cpu0.iq.FU_type_0::SimdShaSigma2             0      0.00%     64.05% # Type of FU issued
system.cpu0.iq.FU_type_0::SimdShaSigma3             0      0.00%     64.05% # Type of FU issued
system.cpu0.iq.FU_type_0::SimdPredAlu               0      0.00%     64.05% # Type of FU issued
system.cpu0.iq.FU_type_0::MemRead              181287     20.15%     84.21% # Type of FU issued
system.cpu0.iq.FU_type_0::MemWrite             142044     15.79%    100.00% # Type of FU issued
system.cpu0.iq.FU_type_0::FloatMemRead              0      0.00%    100.00% # Type of FU issued
system.cpu0.iq.FU_type_0::FloatMemWrite             0      0.00%    100.00% # Type of FU issued
system.cpu0.iq.FU_type_0::IprAccess                 0      0.00%    100.00% # Type of FU issued
system.cpu0.iq.FU_type_0::InstPrefetch              0      0.00%    100.00% # Type of FU issued
system.cpu0.iq.FU_type_0::total                899506                       # Type of FU issued
system.cpu0.iq.fp_alu_accesses                      0                       # Number of floating point alu accesses
system.cpu0.iq.fp_inst_queue_reads                  0                       # Number of floating instruction queue reads
system.cpu0.iq.fp_inst_queue_wakeup_accesses            0                       # Number of floating instruction queue wakeup accesses
system.cpu0.iq.fp_inst_queue_writes                 0                       # Number of floating instruction queue writes
system.cpu0.iq.fu_busy_cnt                     290212                       # FU busy when requested
system.cpu0.iq.fu_busy_rate                  0.322635                       # FU busy rate (busy events/executed inst)
system.cpu0.iq.fu_full::No_OpClass                  0      0.00%      0.00% # attempts to use FU when none available
system.cpu0.iq.fu_full::IntAlu                 153659     52.95%     52.95% # attempts to use FU when none available
system.cpu0.iq.fu_full::IntMult                     0      0.00%     52.95% # attempts to use FU when none available
system.cpu0.iq.fu_full::IntDiv                      0      0.00%     52.95% # attempts to use FU when none available
system.cpu0.iq.fu_full::FloatAdd                    0      0.00%     52.95% # attempts to use FU when none available
system.cpu0.iq.fu_full::FloatCmp                    0      0.00%     52.95% # attempts to use FU when none available
system.cpu0.iq.fu_full::FloatCvt                    0      0.00%     52.95% # attempts to use FU when none available
system.cpu0.iq.fu_full::FloatMult                   0      0.00%     52.95% # attempts to use FU when none available
system.cpu0.iq.fu_full::FloatMultAcc                0      0.00%     52.95% # attempts to use FU when none available
system.cpu0.iq.fu_full::FloatDiv                    0      0.00%     52.95% # attempts to use FU when none available
system.cpu0.iq.fu_full::FloatMisc                   0      0.00%     52.95% # attempts to use FU when none available
system.cpu0.iq.fu_full::FloatSqrt                   0      0.00%     52.95% # attempts to use FU when none available
system.cpu0.iq.fu_full::SimdAdd                     0      0.00%     52.95% # attempts to use FU when none available
system.cpu0.iq.fu_full::SimdAddAcc                  0      0.00%     52.95% # attempts to use FU when none available
system.cpu0.iq.fu_full::SimdAlu                     0      0.00%     52.95% # attempts to use FU when none available
system.cpu0.iq.fu_full::SimdCmp                     0      0.00%     52.95% # attempts to use FU when none available
system.cpu0.iq.fu_full::SimdCvt                     0      0.00%     52.95% # attempts to use FU when none available
system.cpu0.iq.fu_full::SimdMisc                    0      0.00%     52.95% # attempts to use FU when none available
system.cpu0.iq.fu_full::SimdMult                    0      0.00%     52.95% # attempts to use FU when none available
system.cpu0.iq.fu_full::SimdMultAcc                 0      0.00%     52.95% # attempts to use FU when none available
system.cpu0.iq.fu_full::SimdShift                   0      0.00%     52.95% # attempts to use FU when none available
system.cpu0.iq.fu_full::SimdShiftAcc                0      0.00%     52.95% # attempts to use FU when none available
system.cpu0.iq.fu_full::SimdDiv                     0      0.00%     52.95% # attempts to use FU when none available
system.cpu0.iq.fu_full::SimdSqrt                    0      0.00%     52.95% # attempts to use FU when none available
system.cpu0.iq.fu_full::SimdFloatAdd                0      0.00%     52.95% # attempts to use FU when none available
system.cpu0.iq.fu_full::SimdFloatAlu                0      0.00%     52.95% # attempts to use FU when none available
system.cpu0.iq.fu_full::SimdFloatCmp                0      0.00%     52.95% # attempts to use FU when none available
system.cpu0.iq.fu_full::SimdFloatCvt                0      0.00%     52.95% # attempts to use FU when none available
system.cpu0.iq.fu_full::SimdFloatDiv                0      0.00%     52.95% # attempts to use FU when none available
system.cpu0.iq.fu_full::SimdFloatMisc               0      0.00%     52.95% # attempts to use FU when none available
system.cpu0.iq.fu_full::SimdFloatMult               0      0.00%     52.95% # attempts to use FU when none available
system.cpu0.iq.fu_full::SimdFloatMultAcc            0      0.00%     52.95% # attempts to use FU when none available
system.cpu0.iq.fu_full::SimdFloatSqrt               0      0.00%     52.95% # attempts to use FU when none available
system.cpu0.iq.fu_full::SimdReduceAdd               0      0.00%     52.95% # attempts to use FU when none available
system.cpu0.iq.fu_full::SimdReduceAlu               0      0.00%     52.95% # attempts to use FU when none available
system.cpu0.iq.fu_full::SimdReduceCmp               0      0.00%     52.95% # attempts to use FU when none available
system.cpu0.iq.fu_full::SimdFloatReduceAdd            0      0.00%     52.95% # attempts to use FU when none available
system.cpu0.iq.fu_full::SimdFloatReduceCmp            0      0.00%     52.95% # attempts to use FU when none available
system.cpu0.iq.fu_full::SimdAes                     0      0.00%     52.95% # attempts to use FU when none available
system.cpu0.iq.fu_full::SimdAesMix                  0      0.00%     52.95% # attempts to use FU when none available
system.cpu0.iq.fu_full::SimdSha1Hash                0      0.00%     52.95% # attempts to use FU when none available
system.cpu0.iq.fu_full::SimdSha1Hash2               0      0.00%     52.95% # attempts to use FU when none available
system.cpu0.iq.fu_full::SimdSha256Hash              0      0.00%     52.95% # attempts to use FU when none available
system.cpu0.iq.fu_full::SimdSha256Hash2             0      0.00%     52.95% # attempts to use FU when none available
system.cpu0.iq.fu_full::SimdShaSigma2               0      0.00%     52.95% # attempts to use FU when none available
system.cpu0.iq.fu_full::SimdShaSigma3               0      0.00%     52.95% # attempts to use FU when none available
system.cpu0.iq.fu_full::SimdPredAlu                 0      0.00%     52.95% # attempts to use FU when none available
system.cpu0.iq.fu_full::MemRead                 77811     26.81%     79.76% # attempts to use FU when none available
system.cpu0.iq.fu_full::MemWrite                58742     20.24%    100.00% # attempts to use FU when none available
system.cpu0.iq.fu_full::FloatMemRead                0      0.00%    100.00% # attempts to use FU when none available
system.cpu0.iq.fu_full::FloatMemWrite               0      0.00%    100.00% # attempts to use FU when none available
system.cpu0.iq.fu_full::IprAccess                   0      0.00%    100.00% # attempts to use FU when none available
system.cpu0.iq.fu_full::InstPrefetch                0      0.00%    100.00% # attempts to use FU when none available
system.cpu0.iq.int_alu_accesses               1189718                       # Number of integer alu accesses
system.cpu0.iq.int_inst_queue_reads           2642441                       # Number of integer instruction queue reads
system.cpu0.iq.int_inst_queue_wakeup_accesses       889086                       # Number of integer instruction queue wakeup accesses
system.cpu0.iq.int_inst_queue_writes           948266                       # Number of integer instruction queue writes
system.cpu0.iq.iqInstsAdded                    909409                       # Number of instructions added to the IQ (excludes non-spec)
system.cpu0.iq.iqInstsIssued                   899506                       # Number of instructions issued
system.cpu0.iq.iqNonSpecInstsAdded               1964                       # Number of non-speculative instructions added to the IQ
system.cpu0.iq.iqSquashedInstsExamined          36859                       # Number of squashed instructions iterated over during squash; mainly for profiling
system.cpu0.iq.iqSquashedInstsIssued             3682                       # Number of squashed instructions issued
system.cpu0.iq.iqSquashedNonSpecRemoved            30                       # Number of squashed non-spec instructions that were removed
system.cpu0.iq.iqSquashedOperandsExamined        84028                       # Number of squashed operands that are examined and possibly removed from graph
system.cpu0.iq.issued_per_cycle::samples       549538                       # Number of insts issued each cycle
system.cpu0.iq.issued_per_cycle::mean        1.636840                       # Number of insts issued each cycle
system.cpu0.iq.issued_per_cycle::stdev       1.218888                       # Number of insts issued each cycle
system.cpu0.iq.issued_per_cycle::underflows            0      0.00%      0.00% # Number of insts issued each cycle
system.cpu0.iq.issued_per_cycle::0             147884     26.91%     26.91% # Number of insts issued each cycle
system.cpu0.iq.issued_per_cycle::1              76943     14.00%     40.91% # Number of insts issued each cycle
system.cpu0.iq.issued_per_cycle::2             174310     31.72%     72.63% # Number of insts issued each cycle
system.cpu0.iq.issued_per_cycle::3             128569     23.40%     96.03% # Number of insts issued each cycle
system.cpu0.iq.issued_per_cycle::4              20924      3.81%     99.83% # Number of insts issued each cycle
system.cpu0.iq.issued_per_cycle::5                908      0.17%    100.00% # Number of insts issued each cycle
system.cpu0.iq.issued_per_cycle::6                  0      0.00%    100.00% # Number of insts issued each cycle
system.cpu0.iq.issued_per_cycle::7                  0      0.00%    100.00% # Number of insts issued each cycle
system.cpu0.iq.issued_per_cycle::8                  0      0.00%    100.00% # Number of insts issued each cycle
system.cpu0.iq.issued_per_cycle::overflows            0      0.00%    100.00% # Number of insts issued each cycle
system.cpu0.iq.issued_per_cycle::min_value            0                       # Number of insts issued each cycle
system.cpu0.iq.issued_per_cycle::max_value            5                       # Number of insts issued each cycle
system.cpu0.iq.issued_per_cycle::total         549538                       # Number of insts issued each cycle
system.cpu0.iq.rate                          1.537294                       # Inst issue rate
system.cpu0.iq.vec_alu_accesses                     0                       # Number of vector alu accesses
system.cpu0.iq.vec_inst_queue_reads                 0                       # Number of vector instruction queue reads
system.cpu0.iq.vec_inst_queue_wakeup_accesses            0                       # Number of vector instruction queue wakeup accesses
system.cpu0.iq.vec_inst_queue_writes                0                       # Number of vector instruction queue writes
system.cpu0.itb.accesses                            0                       # DTB accesses
system.cpu0.itb.align_faults                        0                       # Number of TLB faults due to alignment restrictions
system.cpu0.itb.domain_faults                       0                       # Number of TLB faults due to domain restrictions
system.cpu0.itb.flush_entries                       0                       # Number of entries that have been flushed from TLB
system.cpu0.itb.flush_tlb                           0                       # Number of times complete TLB was flushed
system.cpu0.itb.flush_tlb_asid                      0                       # Number of times TLB was flushed by ASID
system.cpu0.itb.flush_tlb_mva                       0                       # Number of times TLB was flushed by MVA
system.cpu0.itb.flush_tlb_mva_asid                  0                       # Number of times TLB was flushed by MVA & ASID
system.cpu0.itb.hits                                0                       # DTB hits
system.cpu0.itb.inst_accesses                       0                       # ITB inst accesses
system.cpu0.itb.inst_hits                           0                       # ITB inst hits
system.cpu0.itb.inst_misses                         0                       # ITB inst misses
system.cpu0.itb.misses                              0                       # DTB misses
system.cpu0.itb.perms_faults                        0                       # Number of TLB faults due to permissions restrictions
system.cpu0.itb.prefetch_faults                     0                       # Number of TLB faults due to prefetch
system.cpu0.itb.read_accesses                       0                       # DTB read accesses
system.cpu0.itb.read_hits                           0                       # DTB read hits
system.cpu0.itb.read_misses                         0                       # DTB read misses
system.cpu0.itb.stage2_mmu.stage2_tlb.accesses            0                       # DTB accesses
system.cpu0.itb.stage2_mmu.stage2_tlb.align_faults            0                       # Number of TLB faults due to alignment restrictions
system.cpu0.itb.stage2_mmu.stage2_tlb.domain_faults            0                       # Number of TLB faults due to domain restrictions
system.cpu0.itb.stage2_mmu.stage2_tlb.flush_entries            0                       # Number of entries that have been flushed from TLB
system.cpu0.itb.stage2_mmu.stage2_tlb.flush_tlb            0                       # Number of times complete TLB was flushed
system.cpu0.itb.stage2_mmu.stage2_tlb.flush_tlb_asid            0                       # Number of times TLB was flushed by ASID
system.cpu0.itb.stage2_mmu.stage2_tlb.flush_tlb_mva            0                       # Number of times TLB was flushed by MVA
system.cpu0.itb.stage2_mmu.stage2_tlb.flush_tlb_mva_asid            0                       # Number of times TLB was flushed by MVA & ASID
system.cpu0.itb.stage2_mmu.stage2_tlb.hits            0                       # DTB hits
system.cpu0.itb.stage2_mmu.stage2_tlb.inst_accesses            0                       # ITB inst accesses
system.cpu0.itb.stage2_mmu.stage2_tlb.inst_hits            0                       # ITB inst hits
system.cpu0.itb.stage2_mmu.stage2_tlb.inst_misses            0                       # ITB inst misses
system.cpu0.itb.stage2_mmu.stage2_tlb.misses            0                       # DTB misses
system.cpu0.itb.stage2_mmu.stage2_tlb.perms_faults            0                       # Number of TLB faults due to permissions restrictions
system.cpu0.itb.stage2_mmu.stage2_tlb.prefetch_faults            0                       # Number of TLB faults due to prefetch
system.cpu0.itb.stage2_mmu.stage2_tlb.read_accesses            0                       # DTB read accesses
system.cpu0.itb.stage2_mmu.stage2_tlb.read_hits            0                       # DTB read hits
system.cpu0.itb.stage2_mmu.stage2_tlb.read_misses            0                       # DTB read misses
system.cpu0.itb.stage2_mmu.stage2_tlb.walker.walkRequestOrigin_Requested::Data            0                       # Table walker requests started/completed, data/inst
system.cpu0.itb.stage2_mmu.stage2_tlb.walker.walkRequestOrigin_Requested::Inst            0                       # Table walker requests started/completed, data/inst
system.cpu0.itb.stage2_mmu.stage2_tlb.walker.walkRequestOrigin_Requested::total            0                       # Table walker requests started/completed, data/inst
system.cpu0.itb.stage2_mmu.stage2_tlb.walker.walkRequestOrigin_Completed::Data            0                       # Table walker requests started/completed, data/inst
system.cpu0.itb.stage2_mmu.stage2_tlb.walker.walkRequestOrigin_Completed::Inst            0                       # Table walker requests started/completed, data/inst
system.cpu0.itb.stage2_mmu.stage2_tlb.walker.walkRequestOrigin_Completed::total            0                       # Table walker requests started/completed, data/inst
system.cpu0.itb.stage2_mmu.stage2_tlb.walker.walkRequestOrigin::total            0                       # Table walker requests started/completed, data/inst
system.cpu0.itb.stage2_mmu.stage2_tlb.walker.walks            0                       # Table walker walks requested
system.cpu0.itb.stage2_mmu.stage2_tlb.write_accesses            0                       # DTB write accesses
system.cpu0.itb.stage2_mmu.stage2_tlb.write_hits            0                       # DTB write hits
system.cpu0.itb.stage2_mmu.stage2_tlb.write_misses            0                       # DTB write misses
system.cpu0.itb.walker.walkRequestOrigin_Requested::Data            0                       # Table walker requests started/completed, data/inst
system.cpu0.itb.walker.walkRequestOrigin_Requested::Inst            0                       # Table walker requests started/completed, data/inst
system.cpu0.itb.walker.walkRequestOrigin_Requested::total            0                       # Table walker requests started/completed, data/inst
system.cpu0.itb.walker.walkRequestOrigin_Completed::Data            0                       # Table walker requests started/completed, data/inst
system.cpu0.itb.walker.walkRequestOrigin_Completed::Inst            0                       # Table walker requests started/completed, data/inst
system.cpu0.itb.walker.walkRequestOrigin_Completed::total            0                       # Table walker requests started/completed, data/inst
system.cpu0.itb.walker.walkRequestOrigin::total            0                       # Table walker requests started/completed, data/inst
system.cpu0.itb.walker.walks                        0                       # Table walker walks requested
system.cpu0.itb.write_accesses                      0                       # DTB write accesses
system.cpu0.itb.write_hits                          0                       # DTB write hits
system.cpu0.itb.write_misses                        0                       # DTB write misses
system.cpu0.memDep0.conflictingLoads            13046                       # Number of conflicting loads.
system.cpu0.memDep0.conflictingStores            9166                       # Number of conflicting stores.
system.cpu0.memDep0.insertedLoads              180346                       # Number of loads inserted to the mem dependence unit.
system.cpu0.memDep0.insertedStores             143901                       # Number of stores inserted to the mem dependence unit.
system.cpu0.misc_regfile_reads                 341872                       # number of misc regfile reads
system.cpu0.misc_regfile_writes                  3821                       # number of misc regfile writes
system.cpu0.numCycles                          585123                       # number of cpu cycles simulated
system.cpu0.numWorkItemsCompleted                   0                       # number of work items this cpu completed
system.cpu0.numWorkItemsStarted                     0                       # number of work items this cpu started
system.cpu0.rename.BlockCycles                  17721                       # Number of cycles rename is blocking
system.cpu0.rename.CommittedMaps               971932                       # Number of HB maps that are committed
system.cpu0.rename.IQFullEvents                    61                       # Number of times rename has blocked due to IQ full
system.cpu0.rename.IdleCycles                   69548                       # Number of cycles rename is idle
system.cpu0.rename.ROBFullEvents                 8667                       # Number of times rename has blocked due to ROB full
system.cpu0.rename.RenameLookups              4038117                       # Number of register rename lookups that rename has made
system.cpu0.rename.RenamedInsts                915473                       # Number of instructions processed by rename
system.cpu0.rename.RenamedOperands            1023222                       # Number of destination operands rename has renamed
system.cpu0.rename.RunCycles                   332394                       # Number of cycles rename is running
system.cpu0.rename.SQFullEvents                 68333                       # Number of times rename has blocked due to SQ full
system.cpu0.rename.SquashCycles                  2617                       # Number of cycles rename is squashing
system.cpu0.rename.SquashedInsts                 5327                       # Number of squashed instructions processed by rename
system.cpu0.rename.UnblockCycles                93560                       # Number of cycles rename is unblocking
system.cpu0.rename.UndoneMaps                   51245                       # Number of HB maps that are undone due to squashing
system.cpu0.rename.int_rename_lookups          952229                       # Number of integer rename lookups
system.cpu0.rename.serializeStallCycles         33698                       # count of cycles rename stalled for serializing inst
system.cpu0.rename.serializingInsts              1013                       # count of serializing insts renamed
system.cpu0.rename.skidInsts                    57971                       # count of insts added to the skid buffer
system.cpu0.rename.tempSerializingInsts          1008                       # count of temporary serializing insts renamed
system.cpu0.rename.vec_rename_lookups            1100                       # Number of vector rename lookups
system.cpu0.rob.rob_reads                     1429319                       # The number of ROB reads
system.cpu0.rob.rob_writes                    1819072                       # The number of ROB writes
system.cpu0.timesIdled                            310                       # Number of times that the entire CPU went into an idle state and unscheduled itself
system.cpu0.vec_regfile_reads                    1028                       # number of vector regfile reads
system.cpu0.vec_regfile_writes                    992                       # number of vector regfile writes
system.cpu0.workload.numSyscalls                   23                       # Number of system calls
system.cpu1.branchPred.BTBCorrect                   0                       # Number of correct BTB predictions (this stat may not work properly.
system.cpu1.branchPred.BTBHitPct            94.203394                       # BTB Hit Percentage
system.cpu1.branchPred.BTBHits                  57904                       # Number of BTB hits
system.cpu1.branchPred.BTBLookups               61467                       # Number of BTB lookups
system.cpu1.branchPred.RASInCorrect                62                       # Number of incorrect RAS predictions.
system.cpu1.branchPred.condIncorrect             1876                       # Number of conditional branches incorrect
system.cpu1.branchPred.condPredicted            32460                       # Number of conditional branches predicted
system.cpu1.branchPred.indirectHits              2715                       # Number of indirect target hits.
system.cpu1.branchPred.indirectLookups           3032                       # Number of indirect predictor lookups.
system.cpu1.branchPred.indirectMisses             317                       # Number of indirect misses.
system.cpu1.branchPred.lookups                  94865                       # Number of BP lookups
system.cpu1.branchPred.usedRAS                  30815                       # Number of times the RAS was used to get a target.
system.cpu1.branchPredindirectMispredicted          850                       # Number of mispredicted indirect branches.
system.cpu1.cc_regfile_reads                  3860814                       # number of cc regfile reads
system.cpu1.cc_regfile_writes                  102759                       # number of cc regfile writes
system.cpu1.commit.amos                             0                       # Number of atomic instructions committed
system.cpu1.commit.branchMispredicts             1608                       # The number of times a branch was mispredicted
system.cpu1.commit.branches                     91628                       # Number of branches committed
system.cpu1.commit.bw_lim_events                33021                       # number cycles where commit BW limit reached
system.cpu1.commit.commitNonSpecStalls             50                       # The number of times commit has been forced to stall to communicate backwards
system.cpu1.commit.commitSquashedInsts          19790                       # The number of squashed insts skipped by commit
system.cpu1.commit.committedInsts             1000002                       # Number of instructions committed
system.cpu1.commit.committedOps               1023996                       # Number of ops (including micro ops) committed
system.cpu1.commit.committed_per_cycle::samples       538749                       # Number of insts commited each cycle
system.cpu1.commit.committed_per_cycle::mean     1.900692                       # Number of insts commited each cycle
system.cpu1.commit.committed_per_cycle::stdev     2.305729                       # Number of insts commited each cycle
system.cpu1.commit.committed_per_cycle::underflows            0      0.00%      0.00% # Number of insts commited each cycle
system.cpu1.commit.committed_per_cycle::0       203141     37.71%     37.71% # Number of insts commited each cycle
system.cpu1.commit.committed_per_cycle::1       122287     22.70%     60.40% # Number of insts commited each cycle
system.cpu1.commit.committed_per_cycle::2        53681      9.96%     70.37% # Number of insts commited each cycle
system.cpu1.commit.committed_per_cycle::3        39671      7.36%     77.73% # Number of insts commited each cycle
system.cpu1.commit.committed_per_cycle::4        41162      7.64%     85.37% # Number of insts commited each cycle
system.cpu1.commit.committed_per_cycle::5        31393      5.83%     91.20% # Number of insts commited each cycle
system.cpu1.commit.committed_per_cycle::6        11198      2.08%     93.28% # Number of insts commited each cycle
system.cpu1.commit.committed_per_cycle::7         3195      0.59%     93.87% # Number of insts commited each cycle
system.cpu1.commit.committed_per_cycle::8        33021      6.13%    100.00% # Number of insts commited each cycle
system.cpu1.commit.committed_per_cycle::overflows            0      0.00%    100.00% # Number of insts commited each cycle
system.cpu1.commit.committed_per_cycle::min_value            0                       # Number of insts commited each cycle
system.cpu1.commit.committed_per_cycle::max_value            8                       # Number of insts commited each cycle
system.cpu1.commit.committed_per_cycle::total       538749                       # Number of insts commited each cycle
system.cpu1.commit.fp_insts                         0                       # Number of committed floating point instructions.
system.cpu1.commit.function_calls               30293                       # Number of function calls committed.
system.cpu1.commit.int_insts                   993033                       # Number of committed integer instructions.
system.cpu1.commit.loads                       248370                       # Number of loads committed
system.cpu1.commit.membars                         20                       # Number of memory barriers committed
system.cpu1.commit.op_class_0::No_OpClass            0      0.00%      0.00% # Class of committed instruction
system.cpu1.commit.op_class_0::IntAlu          636629     62.17%     62.17% # Class of committed instruction
system.cpu1.commit.op_class_0::IntMult             10      0.00%     62.17% # Class of committed instruction
system.cpu1.commit.op_class_0::IntDiv               0      0.00%     62.17% # Class of committed instruction
system.cpu1.commit.op_class_0::FloatAdd             0      0.00%     62.17% # Class of committed instruction
system.cpu1.commit.op_class_0::FloatCmp             0      0.00%     62.17% # Class of committed instruction
system.cpu1.commit.op_class_0::FloatCvt             0      0.00%     62.17% # Class of committed instruction
system.cpu1.commit.op_class_0::FloatMult            0      0.00%     62.17% # Class of committed instruction
system.cpu1.commit.op_class_0::FloatMultAcc            0      0.00%     62.17% # Class of committed instruction
system.cpu1.commit.op_class_0::FloatDiv             0      0.00%     62.17% # Class of committed instruction
system.cpu1.commit.op_class_0::FloatMisc            0      0.00%     62.17% # Class of committed instruction
system.cpu1.commit.op_class_0::FloatSqrt            0      0.00%     62.17% # Class of committed instruction
system.cpu1.commit.op_class_0::SimdAdd              0      0.00%     62.17% # Class of committed instruction
system.cpu1.commit.op_class_0::SimdAddAcc            0      0.00%     62.17% # Class of committed instruction
system.cpu1.commit.op_class_0::SimdAlu              0      0.00%     62.17% # Class of committed instruction
system.cpu1.commit.op_class_0::SimdCmp              0      0.00%     62.17% # Class of committed instruction
system.cpu1.commit.op_class_0::SimdCvt              0      0.00%     62.17% # Class of committed instruction
system.cpu1.commit.op_class_0::SimdMisc             0      0.00%     62.17% # Class of committed instruction
system.cpu1.commit.op_class_0::SimdMult             0      0.00%     62.17% # Class of committed instruction
system.cpu1.commit.op_class_0::SimdMultAcc            0      0.00%     62.17% # Class of committed instruction
system.cpu1.commit.op_class_0::SimdShift            0      0.00%     62.17% # Class of committed instruction
system.cpu1.commit.op_class_0::SimdShiftAcc            0      0.00%     62.17% # Class of committed instruction
system.cpu1.commit.op_class_0::SimdDiv              0      0.00%     62.17% # Class of committed instruction
system.cpu1.commit.op_class_0::SimdSqrt             0      0.00%     62.17% # Class of committed instruction
system.cpu1.commit.op_class_0::SimdFloatAdd            0      0.00%     62.17% # Class of committed instruction
system.cpu1.commit.op_class_0::SimdFloatAlu            0      0.00%     62.17% # Class of committed instruction
system.cpu1.commit.op_class_0::SimdFloatCmp            0      0.00%     62.17% # Class of committed instruction
system.cpu1.commit.op_class_0::SimdFloatCvt            0      0.00%     62.17% # Class of committed instruction
system.cpu1.commit.op_class_0::SimdFloatDiv            0      0.00%     62.17% # Class of committed instruction
system.cpu1.commit.op_class_0::SimdFloatMisc            4      0.00%     62.17% # Class of committed instruction
system.cpu1.commit.op_class_0::SimdFloatMult            0      0.00%     62.17% # Class of committed instruction
system.cpu1.commit.op_class_0::SimdFloatMultAcc            0      0.00%     62.17% # Class of committed instruction
system.cpu1.commit.op_class_0::SimdFloatSqrt            0      0.00%     62.17% # Class of committed instruction
system.cpu1.commit.op_class_0::SimdReduceAdd            0      0.00%     62.17% # Class of committed instruction
system.cpu1.commit.op_class_0::SimdReduceAlu            0      0.00%     62.17% # Class of committed instruction
system.cpu1.commit.op_class_0::SimdReduceCmp            0      0.00%     62.17% # Class of committed instruction
system.cpu1.commit.op_class_0::SimdFloatReduceAdd            0      0.00%     62.17% # Class of committed instruction
system.cpu1.commit.op_class_0::SimdFloatReduceCmp            0      0.00%     62.17% # Class of committed instruction
system.cpu1.commit.op_class_0::SimdAes              0      0.00%     62.17% # Class of committed instruction
system.cpu1.commit.op_class_0::SimdAesMix            0      0.00%     62.17% # Class of committed instruction
system.cpu1.commit.op_class_0::SimdSha1Hash            0      0.00%     62.17% # Class of committed instruction
system.cpu1.commit.op_class_0::SimdSha1Hash2            0      0.00%     62.17% # Class of committed instruction
system.cpu1.commit.op_class_0::SimdSha256Hash            0      0.00%     62.17% # Class of committed instruction
system.cpu1.commit.op_class_0::SimdSha256Hash2            0      0.00%     62.17% # Class of committed instruction
system.cpu1.commit.op_class_0::SimdShaSigma2            0      0.00%     62.17% # Class of committed instruction
system.cpu1.commit.op_class_0::SimdShaSigma3            0      0.00%     62.17% # Class of committed instruction
system.cpu1.commit.op_class_0::SimdPredAlu            0      0.00%     62.17% # Class of committed instruction
system.cpu1.commit.op_class_0::MemRead         248370     24.25%     86.43% # Class of committed instruction
system.cpu1.commit.op_class_0::MemWrite        138983     13.57%    100.00% # Class of committed instruction
system.cpu1.commit.op_class_0::FloatMemRead            0      0.00%    100.00% # Class of committed instruction
system.cpu1.commit.op_class_0::FloatMemWrite            0      0.00%    100.00% # Class of committed instruction
system.cpu1.commit.op_class_0::IprAccess            0      0.00%    100.00% # Class of committed instruction
system.cpu1.commit.op_class_0::InstPrefetch            0      0.00%    100.00% # Class of committed instruction
system.cpu1.commit.op_class_0::total          1023996                       # Class of committed instruction
system.cpu1.commit.refs                        387353                       # Number of memory references committed
system.cpu1.commit.swp_count                        0                       # Number of s/w prefetches committed
system.cpu1.commit.vec_insts                        0                       # Number of committed Vector instructions.
system.cpu1.committedInsts                    1000002                       # Number of Instructions Simulated
system.cpu1.committedOps                      1023996                       # Number of Ops (including micro ops) Simulated
system.cpu1.cpi                              0.585122                       # CPI: Cycles Per Instruction
system.cpu1.cpi_total                        0.585122                       # CPI: Total CPI of All Threads
system.cpu1.decode.BlockedCycles                20243                       # Number of cycles decode is blocked
system.cpu1.decode.BranchMispred                  286                       # Number of times decode detected a branch misprediction
system.cpu1.decode.BranchResolved               57939                       # Number of times decode resolved a branch
system.cpu1.decode.DecodedInsts               1055163                       # Number of instructions handled by decode
system.cpu1.decode.IdleCycles                   15389                       # Number of cycles decode is idle
system.cpu1.decode.RunCycles                   501943                       # Number of cycles decode is running
system.cpu1.decode.SquashCycles                  1636                       # Number of cycles decode is squashing
system.cpu1.decode.SquashedInsts                 6796                       # Number of squashed instructions handled by decode
system.cpu1.decode.UnblockCycles                 2931                       # Number of cycles decode is unblocking
system.cpu1.dtb.accesses                            0                       # DTB accesses
system.cpu1.dtb.align_faults                        0                       # Number of TLB faults due to alignment restrictions
system.cpu1.dtb.domain_faults                       0                       # Number of TLB faults due to domain restrictions
system.cpu1.dtb.flush_entries                       0                       # Number of entries that have been flushed from TLB
system.cpu1.dtb.flush_tlb                           0                       # Number of times complete TLB was flushed
system.cpu1.dtb.flush_tlb_asid                      0                       # Number of times TLB was flushed by ASID
system.cpu1.dtb.flush_tlb_mva                       0                       # Number of times TLB was flushed by MVA
system.cpu1.dtb.flush_tlb_mva_asid                  0                       # Number of times TLB was flushed by MVA & ASID
system.cpu1.dtb.hits                                0                       # DTB hits
system.cpu1.dtb.inst_accesses                       0                       # ITB inst accesses
system.cpu1.dtb.inst_hits                           0                       # ITB inst hits
system.cpu1.dtb.inst_misses                         0                       # ITB inst misses
system.cpu1.dtb.misses                              0                       # DTB misses
system.cpu1.dtb.perms_faults                        0                       # Number of TLB faults due to permissions restrictions
system.cpu1.dtb.prefetch_faults                     0                       # Number of TLB faults due to prefetch
system.cpu1.dtb.read_accesses                       0                       # DTB read accesses
system.cpu1.dtb.read_hits                           0                       # DTB read hits
system.cpu1.dtb.read_misses                         0                       # DTB read misses
system.cpu1.dtb.stage2_mmu.stage2_tlb.accesses            0                       # DTB accesses
system.cpu1.dtb.stage2_mmu.stage2_tlb.align_faults            0                       # Number of TLB faults due to alignment restrictions
system.cpu1.dtb.stage2_mmu.stage2_tlb.domain_faults            0                       # Number of TLB faults due to domain restrictions
system.cpu1.dtb.stage2_mmu.stage2_tlb.flush_entries            0                       # Number of entries that have been flushed from TLB
system.cpu1.dtb.stage2_mmu.stage2_tlb.flush_tlb            0                       # Number of times complete TLB was flushed
system.cpu1.dtb.stage2_mmu.stage2_tlb.flush_tlb_asid            0                       # Number of times TLB was flushed by ASID
system.cpu1.dtb.stage2_mmu.stage2_tlb.flush_tlb_mva            0                       # Number of times TLB was flushed by MVA
system.cpu1.dtb.stage2_mmu.stage2_tlb.flush_tlb_mva_asid            0                       # Number of times TLB was flushed by MVA & ASID
system.cpu1.dtb.stage2_mmu.stage2_tlb.hits            0                       # DTB hits
system.cpu1.dtb.stage2_mmu.stage2_tlb.inst_accesses            0                       # ITB inst accesses
system.cpu1.dtb.stage2_mmu.stage2_tlb.inst_hits            0                       # ITB inst hits
system.cpu1.dtb.stage2_mmu.stage2_tlb.inst_misses            0                       # ITB inst misses
system.cpu1.dtb.stage2_mmu.stage2_tlb.misses            0                       # DTB misses
system.cpu1.dtb.stage2_mmu.stage2_tlb.perms_faults            0                       # Number of TLB faults due to permissions restrictions
system.cpu1.dtb.stage2_mmu.stage2_tlb.prefetch_faults            0                       # Number of TLB faults due to prefetch
system.cpu1.dtb.stage2_mmu.stage2_tlb.read_accesses            0                       # DTB read accesses
system.cpu1.dtb.stage2_mmu.stage2_tlb.read_hits            0                       # DTB read hits
system.cpu1.dtb.stage2_mmu.stage2_tlb.read_misses            0                       # DTB read misses
system.cpu1.dtb.stage2_mmu.stage2_tlb.walker.walkRequestOrigin_Requested::Data            0                       # Table walker requests started/completed, data/inst
system.cpu1.dtb.stage2_mmu.stage2_tlb.walker.walkRequestOrigin_Requested::Inst            0                       # Table walker requests started/completed, data/inst
system.cpu1.dtb.stage2_mmu.stage2_tlb.walker.walkRequestOrigin_Requested::total            0                       # Table walker requests started/completed, data/inst
system.cpu1.dtb.stage2_mmu.stage2_tlb.walker.walkRequestOrigin_Completed::Data            0                       # Table walker requests started/completed, data/inst
system.cpu1.dtb.stage2_mmu.stage2_tlb.walker.walkRequestOrigin_Completed::Inst            0                       # Table walker requests started/completed, data/inst
system.cpu1.dtb.stage2_mmu.stage2_tlb.walker.walkRequestOrigin_Completed::total            0                       # Table walker requests started/completed, data/inst
system.cpu1.dtb.stage2_mmu.stage2_tlb.walker.walkRequestOrigin::total            0                       # Table walker requests started/completed, data/inst
system.cpu1.dtb.stage2_mmu.stage2_tlb.walker.walks            0                       # Table walker walks requested
system.cpu1.dtb.stage2_mmu.stage2_tlb.write_accesses            0                       # DTB write accesses
system.cpu1.dtb.stage2_mmu.stage2_tlb.write_hits            0                       # DTB write hits
system.cpu1.dtb.stage2_mmu.stage2_tlb.write_misses            0                       # DTB write misses
system.cpu1.dtb.walker.walkRequestOrigin_Requested::Data            0                       # Table walker requests started/completed, data/inst
system.cpu1.dtb.walker.walkRequestOrigin_Requested::Inst            0                       # Table walker requests started/completed, data/inst
system.cpu1.dtb.walker.walkRequestOrigin_Requested::total            0                       # Table walker requests started/completed, data/inst
system.cpu1.dtb.walker.walkRequestOrigin_Completed::Data            0                       # Table walker requests started/completed, data/inst
system.cpu1.dtb.walker.walkRequestOrigin_Completed::Inst            0                       # Table walker requests started/completed, data/inst
system.cpu1.dtb.walker.walkRequestOrigin_Completed::total            0                       # Table walker requests started/completed, data/inst
system.cpu1.dtb.walker.walkRequestOrigin::total            0                       # Table walker requests started/completed, data/inst
system.cpu1.dtb.walker.walks                        0                       # Table walker walks requested
system.cpu1.dtb.write_accesses                      0                       # DTB write accesses
system.cpu1.dtb.write_hits                          0                       # DTB write hits
system.cpu1.dtb.write_misses                        0                       # DTB write misses
system.cpu1.fetch.Branches                      94865                       # Number of branches that fetch encountered
system.cpu1.fetch.CacheLines                   330045                       # Number of cache lines fetched
system.cpu1.fetch.Cycles                       526860                       # Number of cycles fetch has run and was not squashing or blocked
system.cpu1.fetch.IcacheSquashes                  313                       # Number of outstanding Icache misses that were squashed
system.cpu1.fetch.IcacheWaitRetryStallCycles          477                       # Number of stall cycles due to full MSHR
system.cpu1.fetch.Insts                       1040375                       # Number of instructions fetch has processed
system.cpu1.fetch.MiscStallCycles                 490                       # Number of cycles fetch has spent waiting on interrupts, or bad addresses, or out of MSHRs
system.cpu1.fetch.PendingTrapStallCycles          132                       # Number of stall cycles due to pending traps
system.cpu1.fetch.SquashCycles                   3820                       # Number of cycles fetch has spent squashing
system.cpu1.fetch.branchRate                 0.162128                       # Number of branch fetches per cycle
system.cpu1.fetch.icacheStallCycles             12273                       # Number of cycles fetch is stalled on an Icache miss
system.cpu1.fetch.predictedBranches             91434                       # Number of branches that fetch has predicted taken
system.cpu1.fetch.rate                       1.778045                       # Number of inst fetches per cycle
system.cpu1.fetch.rateDist::samples            542142                       # Number of instructions fetched each cycle (Total)
system.cpu1.fetch.rateDist::mean             1.968294                       # Number of instructions fetched each cycle (Total)
system.cpu1.fetch.rateDist::stdev            1.004370                       # Number of instructions fetched each cycle (Total)
system.cpu1.fetch.rateDist::underflows              0      0.00%      0.00% # Number of instructions fetched each cycle (Total)
system.cpu1.fetch.rateDist::0                   25100      4.63%      4.63% # Number of instructions fetched each cycle (Total)
[...]
system.mem_ctrls.wrQLenPdf::39                      0                       # What write queue length does an incoming req see
system.mem_ctrls.wrQLenPdf::40                      0                       # What write queue length does an incoming req see
system.mem_ctrls.wrQLenPdf::41                      0                       # What write queue length does an incoming req see
system.mem_ctrls.wrQLenPdf::42                      0                       # What write queue length does an incoming req see
system.mem_ctrls.wrQLenPdf::43                      0                       # What write queue length does an incoming req see
system.mem_ctrls.wrQLenPdf::44                      0                       # What write queue length does an incoming req see
system.mem_ctrls.wrQLenPdf::45                      0                       # What write queue length does an incoming req see
system.mem_ctrls.wrQLenPdf::46                      0                       # What write queue length does an incoming req see
system.mem_ctrls.wrQLenPdf::47                      0                       # What write queue length does an incoming req see
system.mem_ctrls.wrQLenPdf::48                      0                       # What write queue length does an incoming req see
system.mem_ctrls.wrQLenPdf::49                      0                       # What write queue length does an incoming req see
system.mem_ctrls.wrQLenPdf::50                      0                       # What write queue length does an incoming req see
system.mem_ctrls.wrQLenPdf::51                      0                       # What write queue length does an incoming req see
system.mem_ctrls.wrQLenPdf::52                      0                       # What write queue length does an incoming req see
system.mem_ctrls.wrQLenPdf::53                      0                       # What write queue length does an incoming req see
system.mem_ctrls.wrQLenPdf::54                      0                       # What write queue length does an incoming req see
system.mem_ctrls.wrQLenPdf::55                      0                       # What write queue length does an incoming req see
system.mem_ctrls.wrQLenPdf::56                      0                       # What write queue length does an incoming req see
system.mem_ctrls.wrQLenPdf::57                      0                       # What write queue length does an incoming req see
system.mem_ctrls.wrQLenPdf::58                      0                       # What write queue length does an incoming req see
system.mem_ctrls.wrQLenPdf::59                      0                       # What write queue length does an incoming req see
system.mem_ctrls.wrQLenPdf::60                      0                       # What write queue length does an incoming req see
system.mem_ctrls.wrQLenPdf::61                      0                       # What write queue length does an incoming req see
system.mem_ctrls.wrQLenPdf::62                      0                       # What write queue length does an incoming req see
system.mem_ctrls.wrQLenPdf::63                      0                       # What write queue length does an incoming req see
system.mem_ctrls.bytesPerActivate::samples          666                       # Bytes accessed per row activation
system.mem_ctrls.bytesPerActivate::mean    371.219219                       # Bytes accessed per row activation
system.mem_ctrls.bytesPerActivate::gmean   222.271328                       # Bytes accessed per row activation
system.mem_ctrls.bytesPerActivate::stdev   353.973437                       # Bytes accessed per row activation
system.mem_ctrls.bytesPerActivate::0-127          194     29.13%     29.13% # Bytes accessed per row activation
system.mem_ctrls.bytesPerActivate::128-255          157     23.57%     52.70% # Bytes accessed per row activation
system.mem_ctrls.bytesPerActivate::256-383           77     11.56%     64.26% # Bytes accessed per row activation
system.mem_ctrls.bytesPerActivate::384-511           36      5.41%     69.67% # Bytes accessed per row activation
system.mem_ctrls.bytesPerActivate::512-639           25      3.75%     73.42% # Bytes accessed per row activation
system.mem_ctrls.bytesPerActivate::640-767           22      3.30%     76.73% # Bytes accessed per row activation
system.mem_ctrls.bytesPerActivate::768-895           46      6.91%     83.63% # Bytes accessed per row activation
system.mem_ctrls.bytesPerActivate::896-1023           10      1.50%     85.14% # Bytes accessed per row activation
system.mem_ctrls.bytesPerActivate::1024-1151           99     14.86%    100.00% # Bytes accessed per row activation
system.mem_ctrls.bytesPerActivate::total          666                       # Bytes accessed per row activation
system.mem_ctrls.bytesReadDRAM                 248768                       # Total number of bytes read from DRAM
system.mem_ctrls.bytesReadWrQ                       0                       # Total number of bytes read from write queue
system.mem_ctrls.bytesWritten                       0                       # Total number of bytes written to DRAM
system.mem_ctrls.bytesReadSys                  248768                       # Total read bytes from the system interface side
system.mem_ctrls.bytesWrittenSys                    0                       # Total written bytes from the system interface side
system.mem_ctrls.avgRdBW                       850.31                       # Average DRAM read bandwidth in MiByte/s
system.mem_ctrls.avgWrBW                         0.00                       # Average achieved write bandwidth in MiByte/s
system.mem_ctrls.avgRdBWSys                    850.31                       # Average system read bandwidth in MiByte/s
system.mem_ctrls.avgWrBWSys                      0.00                       # Average system write bandwidth in MiByte/s
system.mem_ctrls.peakBW                      12800.00                       # Theoretical peak bandwidth in MiByte/s
system.mem_ctrls.busUtil                         6.64                       # Data bus utilization in percentage
system.mem_ctrls.busUtilRead                     6.64                       # Data bus utilization in percentage for reads
system.mem_ctrls.busUtilWrite                    0.00                       # Data bus utilization in percentage for writes
system.mem_ctrls.totGap                     292015500                       # Total gap between requests
system.mem_ctrls.avgGap                      75126.19                       # Average gap between requests
system.mem_ctrls.masterReadBytes::.cpu0.inst        25024                       # Per-master bytes read from memory
system.mem_ctrls.masterReadBytes::.cpu0.data        37824                       # Per-master bytes read from memory
system.mem_ctrls.masterReadBytes::.cpu1.inst        31104                       # Per-master bytes read from memory
system.mem_ctrls.masterReadBytes::.cpu1.data        14336                       # Per-master bytes read from memory
system.mem_ctrls.masterReadBytes::.l2.prefetcher       140480                       # Per-master bytes read from memory
system.mem_ctrls.masterReadRate::.cpu0.inst 85534298.829987600446                       # Per-master bytes read from memory rate (Bytes/sec)
system.mem_ctrls.masterReadRate::.cpu0.data 129285858.333817571402                       # Per-master bytes read from memory rate (Bytes/sec)
system.mem_ctrls.masterReadRate::.cpu1.inst 106316289.594306826591                       # Per-master bytes read from memory rate (Bytes/sec)
system.mem_ctrls.masterReadRate::.cpu1.data 49001746.644289568067                       # Per-master bytes read from memory rate (Bytes/sec)
system.mem_ctrls.masterReadRate::.l2.prefetcher 480173365.554533958435                       # Per-master bytes read from memory rate (Bytes/sec)
system.mem_ctrls.masterReadAccesses::.cpu0.inst          391                       # Per-master read serviced memory accesses
system.mem_ctrls.masterReadAccesses::.cpu0.data          591                       # Per-master read serviced memory accesses
system.mem_ctrls.masterReadAccesses::.cpu1.inst          486                       # Per-master read serviced memory accesses
system.mem_ctrls.masterReadAccesses::.cpu1.data          224                       # Per-master read serviced memory accesses
system.mem_ctrls.masterReadAccesses::.l2.prefetcher         2195                       # Per-master read serviced memory accesses
system.mem_ctrls.masterReadTotalLat::.cpu0.inst     13136506                       # Per-master read total memory access latency
system.mem_ctrls.masterReadTotalLat::.cpu0.data     21322275                       # Per-master read total memory access latency
system.mem_ctrls.masterReadTotalLat::.cpu1.inst     15591020                       # Per-master read total memory access latency
system.mem_ctrls.masterReadTotalLat::.cpu1.data      9710786                       # Per-master read total memory access latency
system.mem_ctrls.masterReadTotalLat::.l2.prefetcher     75798010                       # Per-master read total memory access latency
system.mem_ctrls.masterReadAvgLat::.cpu0.inst     33597.20                       # Per-master read average memory access latency
system.mem_ctrls.masterReadAvgLat::.cpu0.data     36078.30                       # Per-master read average memory access latency
system.mem_ctrls.masterReadAvgLat::.cpu1.inst     32080.29                       # Per-master read average memory access latency
system.mem_ctrls.masterReadAvgLat::.cpu1.data     43351.72                       # Per-master read average memory access latency
system.mem_ctrls.masterReadAvgLat::.l2.prefetcher     34532.12                       # Per-master read average memory access latency
system.mem_ctrls.pageHitRate                    82.79                       # Row buffer hit rate, read and write combined
system.mem_ctrls.rank1.actEnergy              2327640                       # Energy for activate commands per rank (pJ)
system.mem_ctrls.rank1.preEnergy              1233375                       # Energy for precharge commands per rank (pJ)
system.mem_ctrls.rank1.readEnergy            11259780                       # Energy for read commands per rank (pJ)
system.mem_ctrls.rank1.writeEnergy                  0                       # Energy for write commands per rank (pJ)
system.mem_ctrls.rank1.refreshEnergy     22741680.000000                       # Energy for refresh commands per rank (pJ)
system.mem_ctrls.rank1.actBackEnergy        131689950                       # Energy for active background per rank (pJ)
system.mem_ctrls.rank1.preBackEnergy          1446720                       # Energy for precharge background per rank (pJ)
system.mem_ctrls.rank1.actPowerDownEnergy            0                       # Energy for active power-down per rank (pJ)
system.mem_ctrls.rank1.prePowerDownEnergy            0                       # Energy for precharge power-down per rank (pJ)
system.mem_ctrls.rank1.selfRefreshEnergy            0                       # Energy for self refresh per rank (pJ)
system.mem_ctrls.rank1.totalEnergy          170699145                       # Total energy per rank (pJ)
system.mem_ctrls.rank1.averagePower        583.465141                       # Core power per rank (mW)
system.mem_ctrls.rank1.totalIdleTime                0                       # Total Idle time Per DRAM Rank
system.mem_ctrls.rank1.memoryStateTime::IDLE      2742751                       # Time in different power states
system.mem_ctrls.rank1.memoryStateTime::REF      9620000                       # Time in different power states
system.mem_ctrls.rank1.memoryStateTime::SREF            0                       # Time in different power states
system.mem_ctrls.rank1.memoryStateTime::PRE_PDN            0                       # Time in different power states
system.mem_ctrls.rank1.memoryStateTime::ACT    280198249                       # Time in different power states
system.mem_ctrls.rank1.memoryStateTime::ACT_PDN            0                       # Time in different power states
system.mem_ctrls.rank0.actEnergy              2449020                       # Energy for activate commands per rank (pJ)
system.mem_ctrls.rank0.preEnergy              1294095                       # Energy for precharge commands per rank (pJ)
system.mem_ctrls.rank0.readEnergy            16493400                       # Energy for read commands per rank (pJ)
system.mem_ctrls.rank0.writeEnergy                  0                       # Energy for write commands per rank (pJ)
system.mem_ctrls.rank0.refreshEnergy     22741680.000000                       # Energy for refresh commands per rank (pJ)
system.mem_ctrls.rank0.actBackEnergy        127003980                       # Energy for active background per rank (pJ)
system.mem_ctrls.rank0.preBackEnergy          5392800                       # Energy for precharge background per rank (pJ)
system.mem_ctrls.rank0.actPowerDownEnergy            0                       # Energy for active power-down per rank (pJ)
system.mem_ctrls.rank0.prePowerDownEnergy            0                       # Energy for precharge power-down per rank (pJ)
system.mem_ctrls.rank0.selfRefreshEnergy            0                       # Energy for self refresh per rank (pJ)
system.mem_ctrls.rank0.totalEnergy          175374975                       # Total energy per rank (pJ)
system.mem_ctrls.rank0.averagePower        599.447551                       # Core power per rank (mW)
system.mem_ctrls.rank0.totalIdleTime                0                       # Total Idle time Per DRAM Rank
system.mem_ctrls.rank0.memoryStateTime::IDLE     12972315                       # Time in different power states
system.mem_ctrls.rank0.memoryStateTime::REF      9620000                       # Time in different power states
system.mem_ctrls.rank0.memoryStateTime::SREF            0                       # Time in different power states
system.mem_ctrls.rank0.memoryStateTime::PRE_PDN            0                       # Time in different power states
system.mem_ctrls.rank0.memoryStateTime::ACT    269968685                       # Time in different power states
system.mem_ctrls.rank0.memoryStateTime::ACT_PDN            0                       # Time in different power states
system.cpu_clk_domain.clock                       500                       # Clock period in ticks
system.tol2bus.pwrStateResidencyTicks::UNDEFINED    292561000                       # Cumulative time (in ticks) in various power states
system.tol2bus.trans_dist::ReadResp              1462                       # Transaction distribution
system.tol2bus.trans_dist::WritebackDirty          763                       # Transaction distribution
system.tol2bus.trans_dist::WritebackClean          444                       # Transaction distribution
system.tol2bus.trans_dist::HardPFReq             3231                       # Transaction distribution
system.tol2bus.trans_dist::ReadExReq             2450                       # Transaction distribution
system.tol2bus.trans_dist::ReadExResp            2450                       # Transaction distribution
system.tol2bus.trans_dist::ReadCleanReq           929                       # Transaction distribution
system.tol2bus.trans_dist::ReadSharedReq          533                       # Transaction distribution
system.tol2bus.pkt_count_system.cpu0.icache.mem_side::system.l2.cpu_side          925                       # Packet count per connected master and slave (bytes)
system.tol2bus.pkt_count_system.cpu0.dcache.mem_side::system.l2.cpu_side         4064                       # Packet count per connected master and slave (bytes)
system.tol2bus.pkt_count_system.cpu1.icache.mem_side::system.l2.cpu_side         1205                       # Packet count per connected master and slave (bytes)
system.tol2bus.pkt_count_system.cpu1.dcache.mem_side::system.l2.cpu_side         2837                       # Packet count per connected master and slave (bytes)
system.tol2bus.pkt_count::total                  9031                       # Packet count per connected master and slave (bytes)
system.tol2bus.pkt_size_system.cpu0.icache.mem_side::system.l2.cpu_side        32768                       # Cumulative packet size per connected master and slave (bytes)
system.tol2bus.pkt_size_system.cpu0.dcache.mem_side::system.l2.cpu_side       151552                       # Cumulative packet size per connected master and slave (bytes)
system.tol2bus.pkt_size_system.cpu1.icache.mem_side::system.l2.cpu_side        44096                       # Cumulative packet size per connected master and slave (bytes)
system.tol2bus.pkt_size_system.cpu1.dcache.mem_side::system.l2.cpu_side        99200                       # Cumulative packet size per connected master and slave (bytes)
system.tol2bus.pkt_size::total                 327616                       # Cumulative packet size per connected master and slave (bytes)
system.tol2bus.snoops                            3231                       # Total snoops (count)
system.tol2bus.snoopTraffic                         0                       # Total snoop traffic (bytes)
system.tol2bus.snoop_fanout::samples             7143                       # Request fanout histogram
system.tol2bus.snoop_fanout::mean            0.054319                       # Request fanout histogram
system.tol2bus.snoop_fanout::stdev           0.226662                       # Request fanout histogram
system.tol2bus.snoop_fanout::underflows             0      0.00%      0.00% # Request fanout histogram
system.tol2bus.snoop_fanout::0                   6755     94.57%     94.57% # Request fanout histogram
system.tol2bus.snoop_fanout::1                    388      5.43%    100.00% # Request fanout histogram
system.tol2bus.snoop_fanout::2                      0      0.00%    100.00% # Request fanout histogram
system.tol2bus.snoop_fanout::3                      0      0.00%    100.00% # Request fanout histogram
system.tol2bus.snoop_fanout::4                      0      0.00%    100.00% # Request fanout histogram
system.tol2bus.snoop_fanout::5                      0      0.00%    100.00% # Request fanout histogram
system.tol2bus.snoop_fanout::6                      0      0.00%    100.00% # Request fanout histogram
system.tol2bus.snoop_fanout::7                      0      0.00%    100.00% # Request fanout histogram
system.tol2bus.snoop_fanout::8                      0      0.00%    100.00% # Request fanout histogram
system.tol2bus.snoop_fanout::overflows              0      0.00%    100.00% # Request fanout histogram
system.tol2bus.snoop_fanout::min_value              0                       # Request fanout histogram
system.tol2bus.snoop_fanout::max_value              1                       # Request fanout histogram
system.tol2bus.snoop_fanout::total               7143                       # Request fanout histogram
system.tol2bus.reqLayer0.occupancy            3766500                       # Layer occupancy (ticks)
system.tol2bus.reqLayer0.utilization              1.3                       # Layer utilization (%)
system.tol2bus.respLayer5.occupancy           1934991                       # Layer occupancy (ticks)
system.tol2bus.respLayer5.utilization             0.7                       # Layer utilization (%)
system.tol2bus.respLayer4.occupancy            774000                       # Layer occupancy (ticks)
system.tol2bus.respLayer4.utilization             0.3                       # Layer utilization (%)
system.tol2bus.respLayer1.occupancy           2546495                       # Layer occupancy (ticks)
system.tol2bus.respLayer1.utilization             0.9                       # Layer utilization (%)
system.tol2bus.respLayer0.occupancy            620498                       # Layer occupancy (ticks)
system.tol2bus.respLayer0.utilization             0.2                       # Layer utilization (%)

---------- End Simulation Statistics   ----------
