
---------- Begin Simulation Statistics ----------
final_tick                                  336589500                       # Number of ticks from beginning of simulation (restored from checkpoints and never reset)
host_inst_rate                                  63549                       # Simulator instruction rate (inst/s)
host_mem_usage                                 715296                       # Number of bytes of host memory used
host_op_rate                                    70043                       # Simulator op (including micro ops) rate (op/s)
host_seconds                                    30.34                       # Real time elapsed on the host
host_tick_rate                               11092399                       # Simulator tick rate (ticks/s)
sim_freq                                 1000000000000                       # Frequency of simulated ticks
sim_insts                                     1928326                       # Number of instructions simulated
sim_ops                                       2125388                       # Number of ops (including micro ops) simulated
sim_seconds                                  0.000337                       # Number of seconds simulated
sim_ticks                                   336589500                       # Number of ticks simulated
system.cpu0.branchPred.BTBCorrect                   0                       # Number of correct BTB predictions (this stat may not work properly.
system.cpu0.branchPred.BTBHitPct            90.773669                       # BTB Hit Percentage
system.cpu0.branchPred.BTBHits                  86530                       # Number of BTB hits
system.cpu0.branchPred.BTBLookups               95325                       # Number of BTB lookups
system.cpu0.branchPred.RASInCorrect                 0                       # Number of incorrect RAS predictions.
system.cpu0.branchPred.condIncorrect             4455                       # Number of conditional branches incorrect
system.cpu0.branchPred.condPredicted           178034                       # Number of conditional branches predicted
system.cpu0.branchPred.indirectHits              3490                       # Number of indirect target hits.
system.cpu0.branchPred.indirectLookups           3650                       # Number of indirect predictor lookups.
system.cpu0.branchPred.indirectMisses             160                       # Number of indirect misses.
system.cpu0.branchPred.lookups                 228829                       # Number of BP lookups
system.cpu0.branchPred.usedRAS                  14943                       # Number of times the RAS was used to get a target.
system.cpu0.branchPredindirectMispredicted           65                       # Number of mispredicted indirect branches.
system.cpu0.cc_regfile_reads                  4005587                       # number of cc regfile reads
system.cpu0.cc_regfile_writes                  662312                       # number of cc regfile writes
system.cpu0.commit.amos                             0                       # Number of atomic instructions committed
system.cpu0.commit.branchMispredicts             3043                       # The number of times a branch was mispredicted
system.cpu0.commit.branches                    203412                       # Number of branches committed
system.cpu0.commit.bw_lim_events                26940                       # number cycles where commit BW limit reached
system.cpu0.commit.commitNonSpecStalls           2418                       # The number of times commit has been forced to stall to communicate backwards
system.cpu0.commit.commitSquashedInsts          39066                       # The number of squashed insts skipped by commit
system.cpu0.commit.committedInsts             1000001                       # Number of instructions committed
system.cpu0.commit.committedOps               1102176                       # Number of ops (including micro ops) committed
system.cpu0.commit.committed_per_cycle::samples       631315                       # Number of insts commited each cycle
system.cpu0.commit.committed_per_cycle::mean     1.745842                       # Number of insts commited each cycle
system.cpu0.commit.committed_per_cycle::stdev     2.139747                       # Number of insts commited each cycle
system.cpu0.commit.committed_per_cycle::underflows            0      0.00%      0.00% # Number of insts commited each cycle
system.cpu0.commit.committed_per_cycle::0       228707     36.23%     36.23% # Number of insts commited each cycle
system.cpu0.commit.committed_per_cycle::1       163014     25.82%     62.05% # Number of insts commited each cycle
system.cpu0.commit.committed_per_cycle::2        73990     11.72%     73.77% # Number of insts commited each cycle
system.cpu0.commit.committed_per_cycle::3        62140      9.84%     83.61% # Number of insts commited each cycle
system.cpu0.commit.committed_per_cycle::4        31316      4.96%     88.57% # Number of insts commited each cycle
system.cpu0.commit.committed_per_cycle::5        19139      3.03%     91.60% # Number of insts commited each cycle
system.cpu0.commit.committed_per_cycle::6        14200      2.25%     93.85% # Number of insts commited each cycle
system.cpu0.commit.committed_per_cycle::7        11869      1.88%     95.73% # Number of insts commited each cycle
system.cpu0.commit.committed_per_cycle::8        26940      4.27%    100.00% # Number of insts commited each cycle
system.cpu0.commit.committed_per_cycle::overflows            0      0.00%    100.00% # Number of insts commited each cycle
system.cpu0.commit.committed_per_cycle::min_value            0                       # Number of insts commited each cycle
system.cpu0.commit.committed_per_cycle::max_value            8                       # Number of insts commited each cycle
system.cpu0.commit.committed_per_cycle::total       631315                       # Number of insts commited each cycle
system.cpu0.commit.fp_insts                         0                       # Number of committed floating point instructions.
system.cpu0.commit.function_calls               12300                       # Number of function calls committed.
system.cpu0.commit.int_insts                   898573                       # Number of committed integer instructions.
system.cpu0.commit.loads                       216946                       # Number of loads committed
system.cpu0.commit.membars                       1198                       # Number of memory barriers committed
system.cpu0.commit.op_class_0::No_OpClass            0      0.00%      0.00% # Class of committed instruction
system.cpu0.commit.op_class_0::IntAlu          703959     63.87%     63.87% # Class of committed instruction
system.cpu0.commit.op_class_0::IntMult           3467      0.31%     64.18% # Class of committed instruction
system.cpu0.commit.op_class_0::IntDiv               0      0.00%     64.18% # Class of committed instruction
system.cpu0.commit.op_class_0::FloatAdd             0      0.00%     64.18% # Class of committed instruction
system.cpu0.commit.op_class_0::FloatCmp             0      0.00%     64.18% # Class of committed instruction
system.cpu0.commit.op_class_0::FloatCvt             0      0.00%     64.18% # Class of committed instruction
system.cpu0.commit.op_class_0::FloatMult            0      0.00%     64.18% # Class of committed instruction
system.cpu0.commit.op_class_0::FloatMultAcc            0      0.00%     64.18% # Class of committed instruction
system.cpu0.commit.op_class_0::FloatDiv             0      0.00%     64.18% # Class of committed instruction
system.cpu0.commit.op_class_0::FloatMisc            0      0.00%     64.18% # Class of committed instruction
system.cpu0.commit.op_class_0::FloatSqrt            0      0.00%     64.18% # Class of committed instruction
system.cpu0.commit.op_class_0::SimdAdd              0      0.00%     64.18% # Class of committed instruction
system.cpu0.commit.op_class_0::SimdAddAcc            0      0.00%     64.18% # Class of committed instruction
system.cpu0.commit.op_class_0::SimdAlu              0      0.00%     64.18% # Class of committed instruction
system.cpu0.commit.op_class_0::SimdCmp              0      0.00%     64.18% # Class of committed instruction
system.cpu0.commit.op_class_0::SimdCvt              0      0.00%     64.18% # Class of committed instruction
system.cpu0.commit.op_class_0::SimdMisc             0      0.00%     64.18% # Class of committed instruction
system.cpu0.commit.op_class_0::SimdMult             0      0.00%     64.18% # Class of committed instruction
system.cpu0.commit.op_class_0::SimdMultAcc            0      0.00%     64.18% # Class of committed instruction
system.cpu0.commit.op_class_0::SimdShift            0      0.00%     64.18% # Class of committed instruction
system.cpu0.commit.op_class_0::SimdShiftAcc            0      0.00%     64.18% # Class of committed instruction
system.cpu0.commit.op_class_0::SimdDiv              0      0.00%     64.18% # Class of committed instruction
system.cpu0.commit.op_class_0::SimdSqrt             0      0.00%     64.18% # Class of committed instruction
system.cpu0.commit.op_class_0::SimdFloatAdd            0      0.00%     64.18% # Class of committed instruction
system.cpu0.commit.op_class_0::SimdFloatAlu            0      0.00%     64.18% # Class of committed instruction
system.cpu0.commit.op_class_0::SimdFloatCmp            0      0.00%     64.18% # Class of committed instruction
system.cpu0.commit.op_class_0::SimdFloatCvt            0      0.00%     64.18% # Class of committed instruction
system.cpu0.commit.op_class_0::SimdFloatDiv            0      0.00%     64.18% # Class of committed instruction
system.cpu0.commit.op_class_0::SimdFloatMisc            0      0.00%     64.18% # Class of committed instruction
system.cpu0.commit.op_class_0::SimdFloatMult            0      0.00%     64.18% # Class of committed instruction
system.cpu0.commit.op_class_0::SimdFloatMultAcc            0      0.00%     64.18% # Class of committed instruction
system.cpu0.commit.op_class_0::SimdFloatSqrt            0      0.00%     64.18% # Class of committed instruction
system.cpu0.commit.op_class_0::SimdReduceAdd            0      0.00%     64.18% # Class of committed instruction
system.cpu0.commit.op_class_0::SimdReduceAlu            0      0.00%     64.18% # Class of committed instruction
system.cpu0.commit.op_class_0::SimdReduceCmp            0      0.00%     64.18% # Class of committed instruction
system.cpu0.commit.op_class_0::SimdFloatReduceAdd            0      0.00%     64.18% # Class of committed instruction
system.cpu0.commit.op_class_0::SimdFloatReduceCmp            0      0.00%     64.18% # Class of committed instruction
system.cpu0.commit.op_class_0::SimdAes              0      0.00%     64.18% # Class of committed instruction
system.cpu0.commit.op_class_0::SimdAesMix            0      0.00%     64.18% # Class of committed instruction
system.cpu0.commit.op_class_0::SimdSha1Hash            0      0.00%     64.18% # Class of committed instruction
system.cpu0.commit.op_class_0::SimdSha1Hash2            0      0.00%     64.18% # Class of committed instruction
system.cpu0.commit.op_class_0::SimdSha256Hash            0      0.00%     64.18% # Class of committed instruction
system.cpu0.commit.op_class_0::SimdSha256Hash2            0      0.00%     64.18% # Class of committed instruction
system.cpu0.commit.op_class_0::SimdShaSigma2            0      0.00%     64.18% # Class of committed instruction
system.cpu0.commit.op_class_0::SimdShaSigma3            0      0.00%     64.18% # Class of committed instruction
system.cpu0.commit.op_class_0::SimdPredAlu            0      0.00%     64.18% # Class of committed instruction
system.cpu0.commit.op_class_0::MemRead         216946     19.68%     83.87% # Class of committed instruction
system.cpu0.commit.op_class_0::MemWrite        177804     16.13%    100.00% # Class of committed instruction
system.cpu0.commit.op_class_0::FloatMemRead            0      0.00%    100.00% # Class of committed instruction
system.cpu0.commit.op_class_0::FloatMemWrite            0      0.00%    100.00% # Class of committed instruction
system.cpu0.commit.op_class_0::IprAccess            0      0.00%    100.00% # Class of committed instruction
system.cpu0.commit.op_class_0::InstPrefetch            0      0.00%    100.00% # Class of committed instruction
system.cpu0.commit.op_class_0::total          1102176                       # Class of committed instruction
system.cpu0.commit.refs                        394750                       # Number of memory references committed
system.cpu0.commit.swp_count                        0                       # Number of s/w prefetches committed
system.cpu0.commit.vec_insts                        0                       # Number of committed Vector instructions.
system.cpu0.committedInsts                    1000001                       # Number of Instructions Simulated
system.cpu0.committedOps                      1102176                       # Number of Ops (including micro ops) Simulated
system.cpu0.cpi                              0.673179                       # CPI: Cycles Per Instruction
system.cpu0.cpi_total                        0.673179                       # CPI: Total CPI of All Threads
system.cpu0.decode.BlockedCycles               130592                       # Number of cycles decode is blocked
system.cpu0.decode.BranchMispred                 1412                       # Number of times decode detected a branch misprediction
system.cpu0.decode.BranchResolved               85465                       # Number of times decode resolved a branch
system.cpu0.decode.DecodedInsts               1166493                       # Number of instructions handled by decode
system.cpu0.decode.IdleCycles                   51084                       # Number of cycles decode is idle
system.cpu0.decode.RunCycles                   412686                       # Number of cycles decode is running
system.cpu0.decode.SquashCycles                  3097                       # Number of cycles decode is squashing
system.cpu0.decode.SquashedInsts                23630                       # Number of squashed instructions handled by decode
system.cpu0.decode.UnblockCycles                40311                       # Number of cycles decode is unblocking
system.cpu0.dtb.accesses                            0                       # DTB accesses
system.cpu0.dtb.align_faults                        0                       # Number of TLB faults due to alignment restrictions
system.cpu0.dtb.domain_faults                       0                       # Number of TLB faults due to domain restrictions
system.cpu0.dtb.flush_entries                       0                       # Number of entries that have been flushed from TLB
system.cpu0.dtb.flush_tlb                           0                       # Number of times complete TLB was flushed
system.cpu0.dtb.flush_tlb_asid                      0                       # Number of times TLB was flushed by ASID
system.cpu0.dtb.flush_tlb_mva                       0                       # Number of times TLB was flushed by MVA
system.cpu0.dtb.flush_tlb_mva_asid                  0                       # Number of times TLB was flushed by MVA & ASID
system.cpu0.dtb.hits                                0                       # DTB hits
system.cpu0.dtb.inst_accesses                       0                       # ITB inst accesses
system.cpu0.dtb.inst_hits                           0                       # ITB inst hits
system.cpu0.dtb.inst_misses                         0                       # ITB inst misses
system.cpu0.dtb.misses                              0                       # DTB misses
system.cpu0.dtb.perms_faults                        0                       # Number of TLB faults due to permissions restrictions
system.cpu0.dtb.prefetch_faults                     0                       # Number of TLB faults due to prefetch
system.cpu0.dtb.read_accesses                       0                       # DTB read accesses
system.cpu0.dtb.read_hits                           0                       # DTB read hits
system.cpu0.dtb.read_misses                         0                       # DTB read misses
system.cpu0.dtb.stage2_mmu.stage2_tlb.accesses            0                       # DTB accesses
system.cpu0.dtb.stage2_mmu.stage2_tlb.align_faults            0                       # Number of TLB faults due to alignment restrictions
system.cpu0.dtb.stage2_mmu.stage2_tlb.domain_faults            0                       # Number of TLB faults due to domain restrictions
system.cpu0.dtb.stage2_mmu.stage2_tlb.flush_entries            0                       # Number of entries that have been flushed from TLB
system.cpu0.dtb.stage2_mmu.stage2_tlb.flush_tlb            0                       # Number of times complete TLB was flushed
system.cpu0.dtb.stage2_mmu.stage2_tlb.flush_tlb_asid            0                       # Number of times TLB was flushed by ASID
system.cpu0.dtb.stage2_mmu.stage2_tlb.flush_tlb_mva            0                       # Number of times TLB was flushed by MVA
system.cpu0.dtb.stage2_mmu.stage2_tlb.flush_tlb_mva_asid            0                       # Number of times TLB was flushed by MVA & ASID
system.cpu0.dtb.stage2_mmu.stage2_tlb.hits            0                       # DTB hits
system.cpu0.dtb.stage2_mmu.stage2_tlb.inst_accesses            0                       # ITB inst accesses
system.cpu0.dtb.stage2_mmu.stage2_tlb.inst_hits            0                       # ITB inst hits
system.cpu0.dtb.stage2_mmu.stage2_tlb.inst_misses            0                       # ITB inst misses
system.cpu0.dtb.stage2_mmu.stage2_tlb.misses            0                       # DTB misses
system.cpu0.dtb.stage2_mmu.stage2_tlb.perms_faults            0                       # Number of TLB faults due to permissions restrictions
system.cpu0.dtb.stage2_mmu.stage2_tlb.prefetch_faults            0                       # Number of TLB faults due to prefetch
system.cpu0.dtb.stage2_mmu.stage2_tlb.read_accesses            0                       # DTB read accesses
system.cpu0.dtb.stage2_mmu.stage2_tlb.read_hits            0                       # DTB read hits
system.cpu0.dtb.stage2_mmu.stage2_tlb.read_misses            0                       # DTB read misses
system.cpu0.dtb.stage2_mmu.stage2_tlb.walker.walkRequestOrigin_Requested::Data            0                       # Table walker requests started/completed, data/inst
system.cpu0.dtb.stage2_mmu.stage2_tlb.walker.walkRequestOrigin_Requested::Inst            0                       # Table walker requests started/completed, data/inst
system.cpu0.dtb.stage2_mmu.stage2_tlb.walker.walkRequestOrigin_Requested::total            0                       # Table walker requests started/completed, data/inst
system.cpu0.dtb.stage2_mmu.stage2_tlb.walker.walkRequestOrigin_Completed::Data            0                       # Table walker requests started/completed, data/inst
system.cpu0.dtb.stage2_mmu.stage2_tlb.walker.walkRequestOrigin_Completed::Inst            0                       # Table walker requests started/completed, data/inst
system.cpu0.dtb.stage2_mmu.stage2_tlb.walker.walkRequestOrigin_Completed::total            0                       # Table walker requests started/completed, data/inst
system.cpu0.dtb.stage2_mmu.stage2_tlb.walker.walkRequestOrigin::total            0                       # Table walker requests started/completed, data/inst
system.cpu0.dtb.stage2_mmu.stage2_tlb.walker.walks            0                       # Table walker walks requested
system.cpu0.dtb.stage2_mmu.stage2_tlb.write_accesses            0                       # DTB write accesses
system.cpu0.dtb.stage2_mmu.stage2_tlb.write_hits            0                       # DTB write hits
system.cpu0.dtb.stage2_mmu.stage2_tlb.write_misses            0                       # DTB write misses
system.cpu0.dtb.walker.walkRequestOrigin_Requested::Data            0                       # Table walker requests started/completed, data/inst
system.cpu0.dtb.walker.walkRequestOrigin_Requested::Inst            0                       # Table walker requests started/completed, data/inst
system.cpu0.dtb.walker.walkRequestOrigin_Requested::total            0                       # Table walker requests started/completed, data/inst
system.cpu0.dtb.walker.walkRequestOrigin_Completed::Data            0                       # Table walker requests started/completed, data/inst
system.cpu0.dtb.walker.walkRequestOrigin_Completed::Inst            0                       # Table walker requests started/completed, data/inst
system.cpu0.dtb.walker.walkRequestOrigin_Completed::total            0                       # Table walker requests started/completed, data/inst
system.cpu0.dtb.walker.walkRequestOrigin::total            0                       # Table walker requests started/completed, data/inst
system.cpu0.dtb.walker.walks                        0                       # Table walker walks requested
system.cpu0.dtb.write_accesses                      0                       # DTB write accesses
system.cpu0.dtb.write_hits                          0                       # DTB write hits
system.cpu0.dtb.write_misses                        0                       # DTB write misses
system.cpu0.fetch.Branches                     228829                       # Number of branches that fetch encountered
system.cpu0.fetch.CacheLines                   276661                       # Number of cache lines fetched
system.cpu0.fetch.Cycles                       619698                       # Number of cycles fetch has run and was not squashing or blocked
system.cpu0.fetch.IcacheSquashes                  252                       # Number of outstanding Icache misses that were squashed
system.cpu0.fetch.IcacheWaitRetryStallCycles          426                       # Number of stall cycles due to full MSHR
system.cpu0.fetch.Insts                       1122986                       # Number of instructions fetch has processed
system.cpu0.fetch.MiscStallCycles                 119                       # Number of cycles fetch has spent waiting on interrupts, or bad addresses, or out of MSHRs
system.cpu0.fetch.PendingTrapStallCycles           47                       # Number of stall cycles due to pending traps
system.cpu0.fetch.SquashCycles                   9018                       # Number of cycles fetch has spent squashing
system.cpu0.fetch.branchRate                 0.339922                       # Number of branch fetches per cycle
system.cpu0.fetch.icacheStallCycles             12971                       # Number of cycles fetch is stalled on an Icache miss
system.cpu0.fetch.predictedBranches            104963                       # Number of branches that fetch has predicted taken
system.cpu0.fetch.rate                       1.668181                       # Number of inst fetches per cycle
system.cpu0.fetch.rateDist::samples            637770                       # Number of instructions fetched each cycle (Total)
system.cpu0.fetch.rateDist::mean             1.937459                       # Number of instructions fetched each cycle (Total)
system.cpu0.fetch.rateDist::stdev            1.189873                       # Number of instructions fetched each cycle (Total)
system.cpu0.fetch.rateDist::underflows              0      0.00%      0.00% # Number of instructions fetched each cycle (Total)
system.cpu0.fetch.rateDist::0                  125463     19.67%     19.67% # Number of instructions fetched each cycle (Total)
system.cpu0.fetch.rateDist::1                   96278     15.10%     34.77% # Number of instructions fetched each cycle (Total)
system.cpu0.fetch.rateDist::2                  108712     17.05%     51.81% # Number of instructions fetched each cycle (Total)
system.cpu0.fetch.rateDist::3                  307317     48.19%    100.00% # Number of instructions fetched each cycle (Total)
system.cpu0.fetch.rateDist::overflows               0      0.00%    100.00% # Number of instructions fetched each cycle (Total)
system.cpu0.fetch.rateDist::min_value               0                       # Number of instructions fetched each cycle (Total)
system.cpu0.fetch.rateDist::max_value               3                       # Number of instructions fetched each cycle (Total)
system.cpu0.fetch.rateDist::total              637770                       # Number of instructions fetched each cycle (Total)
system.cpu0.idleCycles                          35410                       # Total number of cycles that the CPU has spent unscheduled due to idling
system.cpu0.iew.branchMispredicts                3087                       # Number of branch mispredicts detected at execute
system.cpu0.iew.exec_branches                  205563                       # Number of branches executed
system.cpu0.iew.exec_nop                           38                       # number of nop insts executed
system.cpu0.iew.exec_rate                    1.672758                       # Inst execution rate
system.cpu0.iew.exec_refs                      405291                       # number of memory reference insts executed
system.cpu0.iew.exec_stores                    178717                       # Number of stores executed
system.cpu0.iew.exec_swp                            0                       # number of swp insts executed
system.cpu0.iew.iewBlockCycles                   3699                       # Number of cycles IEW is blocking
system.cpu0.iew.iewBranchMispredictRate      1.501729                       # Percentage of branch mispredicts
system.cpu0.iew.iewBranchPercentage         18.254953                       # Percentage of branches executed
system.cpu0.iew.iewDispLoadInsts               226884                       # Number of dispatched load instructions
system.cpu0.iew.iewDispNonSpecInsts              1244                       # Number of dispatched non-speculative instructions
system.cpu0.iew.iewDispSquashedInsts                0                       # Number of squashed instructions skipped by dispatch
system.cpu0.iew.iewDispStoreInsts              181145                       # Number of dispatched store instructions
system.cpu0.iew.iewDispatchedInsts            1146657                       # Number of instructions dispatched to IQ
system.cpu0.iew.iewExecLoadInsts               226574                       # Number of load instructions executed
system.cpu0.iew.iewExecSquashedInsts             6413                       # Number of squashed instructions skipped in execute
system.cpu0.iew.iewExecutedInsts              1126067                       # Number of executed instructions
system.cpu0.iew.iewIQFullEvents                     3                       # Number of times the IQ has become full, causing a stall
system.cpu0.iew.iewIdleCycles                       0                       # Number of cycles IEW is idle
system.cpu0.iew.iewLSQFullEvents                 2514                       # Number of times the LSQ has become full, causing a stall
system.cpu0.iew.iewSquashCycles                  3097                       # Number of cycles IEW is squashing
system.cpu0.iew.iewUnblockCycles                 2518                       # Number of cycles IEW is unblocking
system.cpu0.iew.lsq.thread0.blockedLoads            0                       # Number of blocked loads due to partial load-store forwarding
system.cpu0.iew.lsq.thread0.cacheBlocked          173                       # Number of times an access to memory failed due to the cache being blocked
system.cpu0.iew.lsq.thread0.forwLoads           19430                       # Number of loads that had data forwarded from stores
system.cpu0.iew.lsq.thread0.ignoredResponses            0                       # Number of memory responses ignored because the instruction is squashed
system.cpu0.iew.lsq.thread0.invAddrLoads            0                       # Number of loads ignored due to an invalid address
system.cpu0.iew.lsq.thread0.invAddrSwpfs            0                       # Number of software prefetches ignored due to an invalid address
system.cpu0.iew.lsq.thread0.memOrderViolation           39                       # Number of memory ordering violations
system.cpu0.iew.lsq.thread0.rescheduledLoads         2306                       # Number of loads that were rescheduled
system.cpu0.iew.lsq.thread0.squashedLoads         9934                       # Number of loads squashed
system.cpu0.iew.lsq.thread0.squashedStores         3334                       # Number of stores squashed
system.cpu0.iew.memOrderViolationEvents            39                       # Number of memory order violations
system.cpu0.iew.predictedNotTakenIncorrect         3075                       # Number of branches that were predicted not taken incorrectly
system.cpu0.iew.predictedTakenIncorrect            12                       # Number of branches that were predicted taken incorrectly
system.cpu0.iew.wb_consumers                   989077                       # num instructions consuming a value
system.cpu0.iew.wb_count                      1119776                       # cumulative count of insts written-back
system.cpu0.iew.wb_fanout                    0.592938                       # average fanout of values written-back
system.cpu0.iew.wb_producers                   586461                       # num instructions producing a value
system.cpu0.iew.wb_rate                      1.663412                       # insts written-back per cycle
system.cpu0.iew.wb_sent                       1120551                       # cumulative count of insts sent to commit
system.cpu0.int_regfile_reads                 1147874                       # number of integer regfile reads
system.cpu0.int_regfile_writes                 573813                       # number of integer regfile writes
system.cpu0.ipc                              1.485488                       # IPC: Instructions Per Cycle
system.cpu0.ipc_total                        1.485488                       # IPC: Total IPC of All Threads
system.cpu0.iq.FU_type_0::No_OpClass                0      0.00%      0.00% # Type of FU issued
system.cpu0.iq.FU_type_0::IntAlu               721882     63.74%     63.74% # Type of FU issued
system.cpu0.iq.FU_type_0::IntMult                3468      0.31%     64.05% # Type of FU issued
system.cpu0.iq.FU_type_0::IntDiv                    0      0.00%     64.05% # Type of FU issued
system.cpu0.iq.FU_type_0::FloatAdd                  0      0.00%     64.05% # Type of FU issued
system.cpu0.iq.FU_type_0::FloatCmp                  0      0.00%     64.05% # Type of FU issued
system.cpu0.iq.FU_type_0::FloatCvt                  0      0.00%     64.05% # Type of FU issued
system.cpu0.iq.FU_type_0::FloatMult                 0      0.00%     64.05% # Type of FU issued
system.cpu0.iq.FU_type_0::FloatMultAcc              0      0.00%     64.05% # Type of FU issued
system.cpu0.iq.FU_type_0::FloatDiv                  0      0.00%     64.05% # Type of FU issued
system.cpu0.iq.FU_type_0::FloatMisc                 0      0.00%     64.05% # Type of FU issued
system.cpu0.iq.FU_type_0::FloatSqrt                 0      0.00%     64.05% # Type of FU issued
system.cpu0.iq.FU_type_0::SimdAdd                   9      0.00%     64.05% # Type of FU issued
system.cpu0.iq.FU_type_0::SimdAddAcc                2      0.00%     64.05% # Type of FU issued
system.cpu0.iq.FU_type_0::SimdAlu                   0      0.00%     64.05% # Type of FU issued
system.cpu0.iq.FU_type_0::SimdCmp                   0      0.00%     64.05% # Type of FU issued
system.cpu0.iq.FU_type_0::SimdCvt                   0      0.00%     64.05% # Type of FU issued
system.cpu0.iq.FU_type_0::SimdMisc                  0      0.00%     64.05% # Type of FU issued
system.cpu0.iq.FU_type_0::SimdMult                  0      0.00%     64.05% # Type of FU issued
system.cpu0.iq.FU_type_0::SimdMultAcc               0      0.00%     64.05% # Type of FU issued
system.cpu0.iq.FU_type_0::SimdShift                 4      0.00%     64.05% # Type of FU issued
system.cpu0.iq.FU_type_0::SimdShiftAcc              0      0.00%     64.05% # Type of FU issued
system.cpu0.iq.FU_type_0::SimdDiv                   0      0.00%     64.05% # Type of FU issued
system.cpu0.iq.FU_type_0::SimdSqrt                  0      0.00%     64.05% # Type of FU issued
system.cpu0.iq.FU_type_0::SimdFloatAdd              0      0.00%     64.05% # Type of FU issued
system.cpu0.iq.FU_type_0::SimdFloatAlu              0      0.00%     64.05% # Type of FU issued
system.cpu0.iq.FU_type_0::SimdFloatCmp              0      0.00%     64.05% # Type of FU issued
system.cpu0.iq.FU_type_0::SimdFloatCvt              0      0.00%     64.05% # Type of FU issued
system.cpu0.iq.FU_type_0::SimdFloatDiv              0      0.00%     64.05% # Type of FU issued
system.cpu0.iq.FU_type_0::SimdFloatMisc             0      0.00%     64.05% # Type of FU issued
system.cpu0.iq.FU_type_0::SimdFloatMult             0      0.00%     64.05% # Type of FU issued
system.cpu0.iq.FU_type_0::SimdFloatMultAcc            0      0.00%     64.05% # Type of FU issued
system.cpu0.iq.FU_type_0::SimdFloatSqrt             0      0.00%     64.05% # Type of FU issued
system.cpu0.iq.FU_type_0::SimdReduceAdd             0      0.00%     64.05% # Type of FU issued
system.cpu0.iq.FU_type_0::SimdReduceAlu             0      0.00%     64.05% # Type of FU issued
system.cpu0.iq.FU_type_0::SimdReduceCmp             0      0.00%     64.05% # Type of FU issued
system.cpu0.iq.FU_type_0::SimdFloatReduceAdd            0      0.00%     64.05% # Type of FU issued
system.cpu0.iq.FU_type_0::SimdFloatReduceCmp            0      0.00%     64.05% # Type of FU issued
system.cpu0.iq.FU_type_0::SimdAes                   0      0.00%     64.05% # Type of FU issued
system.cpu0.iq.FU_type_0::SimdAesMix                0      0.00%     64.05% # Type of FU issued
system.cpu0.iq.FU_type_0::SimdSha1Hash              0      0.00%     64.05% # Type of FU issued
system.cpu0.iq.FU_type_0::SimdSha1Hash2             0      0.00%     64.05% # Type of FU issued
system.cpu0.iq.FU_type_0::SimdSha256Hash            0      0.00%     64.05% # Type of FU issued
system.cpu0.iq.FU_type_0::SimdSha256Hash2            0      0.00%     64.05% # Type of FU issued
system.cpu0.iq.FU_type_0::SimdShaSigma2             0      0.00%     64.05% # Type of FU issued
system.cpu0.iq.FU_type_0::SimdShaSigma3             0      0.00%     64.05% # Type of FU issued
system.cpu0.iq.FU_type_0::SimdPredAlu               0      0.00%     64.05% # Type of FU issued
system.cpu0.iq.FU_type_0::MemRead              228200     20.15%     84.20% # Type of FU issued
system.cpu0.iq.FU_type_0::MemWrite             178919     15.80%    100.00% # Type of FU issued
system.cpu0.iq.FU_type_0::FloatMemRead              0      0.00%    100.00% # Type of FU issued
system.cpu0.iq.FU_type_0::FloatMemWrite             0      0.00%    100.00% # Type of FU issued
system.cpu0.iq.FU_type_0::IprAccess                 0      0.00%    100.00% # Type of FU issued
system.cpu0.iq.FU_type_0::InstPrefetch              0      0.00%    100.00% # Type of FU issued
system.cpu0.iq.FU_type_0::total               1132484                       # Type of FU issued
system.cpu0.iq.fp_alu_accesses                      0                       # Number of floating point alu accesses
system.cpu0.iq.fp_inst_queue_reads                  0                       # Number of floating instruction queue reads
system.cpu0.iq.fp_inst_queue_wakeup_accesses            0                       # Number of floating instruction queue wakeup accesses
system.cpu0.iq.fp_inst_queue_writes                 0                       # Number of floating instruction queue writes
system.cpu0.iq.fu_busy_cnt                     365720                       # FU busy when requested
system.cpu0.iq.fu_busy_rate                  0.322936                       # FU busy rate (busy events/executed inst)
system.cpu0.iq.fu_full::No_OpClass                  0      0.00%      0.00% # attempts to use FU when none available
system.cpu0.iq.fu_full::IntAlu                 193765     52.98%     52.98% # attempts to use FU when none available
system.cpu0.iq.fu_full::IntMult                     0      0.00%     52.98% # attempts to use FU when none available
system.cpu0.iq.fu_full::IntDiv                      0      0.00%     52.98% # attempts to use FU when none available
system.cpu0.iq.fu_full::FloatAdd                    0      0.00%     52.98% # attempts to use FU when none available
system.cpu0.iq.fu_full::FloatCmp                    0      0.00%     52.98% # attempts to use FU when none available
system.cpu0.iq.fu_full::FloatCvt                    0      0.00%     52.98% # attempts to use FU when none available
system.cpu0.iq.fu_full::FloatMult                   0      0.00%     52.98% # attempts to use FU when none available
system.cpu0.iq.fu_full::FloatMultAcc                0      0.00%     52.98% # attempts to use FU when none available
system.cpu0.iq.fu_full::FloatDiv                    0      0.00%     52.98% # attempts to use FU when none available
system.cpu0.iq.fu_full::FloatMisc                   0      0.00%     52.98% # attempts to use FU when none available
system.cpu0.iq.fu_full::FloatSqrt                   0      0.00%     52.98% # attempts to use FU when none available
system.cpu0.iq.fu_full::SimdAdd                     0      0.00%     52.98% # attempts to use FU when none available
system.cpu0.iq.fu_full::SimdAddAcc                  0      0.00%     52.98% # attempts to use FU when none available
system.cpu0.iq.fu_full::SimdAlu                     0      0.00%     52.98% # attempts to use FU when none available
system.cpu0.iq.fu_full::SimdCmp                     0      0.00%     52.98% # attempts to use FU when none available
system.cpu0.iq.fu_full::SimdCvt                     0      0.00%     52.98% # attempts to use FU when none available
system.cpu0.iq.fu_full::SimdMisc                    0      0.00%     52.98% # attempts to use FU when none available
system.cpu0.iq.fu_full::SimdMult                    0      0.00%     52.98% # attempts to use FU when none available
system.cpu0.iq.fu_full::SimdMultAcc                 0      0.00%     52.98% # attempts to use FU when none available
system.cpu0.iq.fu_full::SimdShift                   0      0.00%     52.98% # attempts to use FU when none available
system.cpu0.iq.fu_full::SimdShiftAcc                0      0.00%     52.98% # attempts to use FU when none available
system.cpu0.iq.fu_full::SimdDiv                     0      0.00%     52.98% # attempts to use FU when none available
system.cpu0.iq.fu_full::SimdSqrt                    0      0.00%     52.98% # attempts to use FU when none available
system.cpu0.iq.fu_full::SimdFloatAdd                0      0.00%     52.98% # attempts to use FU when none available
system.cpu0.iq.fu_full::SimdFloatAlu                0      0.00%     52.98% # attempts to use FU when none available
system.cpu0.iq.fu_full::SimdFloatCmp                0      0.00%     52.98% # attempts to use FU when none available
system.cpu0.iq.fu_full::SimdFloatCvt                0      0.00%     52.98% # attempts to use FU when none available
system.cpu0.iq.fu_full::SimdFloatDiv                0      0.00%     52.98% # attempts to use FU when none available
system.cpu0.iq.fu_full::SimdFloatMisc               0      0.00%     52.98% # attempts to use FU when none available
system.cpu0.iq.fu_full::SimdFloatMult               0      0.00%     52.98% # attempts to use FU when none available
system.cpu0.iq.fu_full::SimdFloatMultAcc            0      0.00%     52.98% # attempts to use FU when none available
system.cpu0.iq.fu_full::SimdFloatSqrt               0      0.00%     52.98% # attempts to use FU when none available
system.cpu0.iq.fu_full::SimdReduceAdd               0      0.00%     52.98% # attempts to use FU when none available
system.cpu0.iq.fu_full::SimdReduceAlu               0      0.00%     52.98% # attempts to use FU when none available
system.cpu0.iq.fu_full::SimdReduceCmp               0      0.00%     52.98% # attempts to use FU when none available
system.cpu0.iq.fu_full::SimdFloatReduceAdd            0      0.00%     52.98% # attempts to use FU when none available
system.cpu0.iq.fu_full::SimdFloatReduceCmp            0      0.00%     52.98% # attempts to use FU when none available
system.cpu0.iq.fu_full::SimdAes                     0      0.00%     52.98% # attempts to use FU when none available
system.cpu0.iq.fu_full::SimdAesMix                  0      0.00%     52.98% # attempts to use FU when none available
system.cpu0.iq.fu_full::SimdSha1Hash                0      0.00%     52.98% # attempts to use FU when none available
system.cpu0.iq.fu_full::SimdSha1Hash2               0      0.00%     52.98% # attempts to use FU when none available
system.cpu0.iq.fu_full::SimdSha256Hash              0      0.00%     52.98% # attempts to use FU when none available
system.cpu0.iq.fu_full::SimdSha256Hash2             0      0.00%     52.98% # attempts to use FU when none available
system.cpu0.iq.fu_full::SimdShaSigma2               0      0.00%     52.98% # attempts to use FU when none available
system.cpu0.iq.fu_full::SimdShaSigma3               0      0.00%     52.98% # attempts to use FU when none available
system.cpu0.iq.fu_full::SimdPredAlu                 0      0.00%     52.98% # attempts to use FU when none available
system.cpu0.iq.fu_full::MemRead                 98071     26.82%     79.80% # attempts to use FU when none available
system.cpu0.iq.fu_full::MemWrite                73884     20.20%    100.00% # attempts to use FU when none available
system.cpu0.iq.fu_full::FloatMemRead                0      0.00%    100.00% # attempts to use FU when none available
system.cpu0.iq.fu_full::FloatMemWrite               0      0.00%    100.00% # attempts to use FU when none available
system.cpu0.iq.fu_full::IprAccess                   0      0.00%    100.00% # attempts to use FU when none available
system.cpu0.iq.fu_full::InstPrefetch                0      0.00%    100.00% # attempts to use FU when none available
system.cpu0.iq.int_alu_accesses               1498204                       # Number of integer alu accesses
system.cpu0.iq.int_inst_queue_reads           3272981                       # Number of integer instruction queue reads
system.cpu0.iq.int_inst_queue_wakeup_accesses      1119776                       # Number of integer instruction queue wakeup accesses
system.cpu0.iq.int_inst_queue_writes          1191070                       # Number of integer instruction queue writes
system.cpu0.iq.iqInstsAdded                   1144171                       # Number of instructions added to the IQ (excludes non-spec)
system.cpu0.iq.iqInstsIssued                  1132484                       # Number of instructions issued
system.cpu0.iq.iqNonSpecInstsAdded               2448                       # Number of non-speculative instructions added to the IQ
system.cpu0.iq.iqSquashedInstsExamined          44417                       # Number of squashed instructions iterated over during squash; mainly for profiling
system.cpu0.iq.iqSquashedInstsIssued             4527                       # Number of squashed instructions issued
system.cpu0.iq.iqSquashedNonSpecRemoved            30                       # Number of squashed non-spec instructions that were removed
system.cpu0.iq.iqSquashedOperandsExamined       100830                       # Number of squashed operands that are examined and possibly removed from graph
system.cpu0.iq.issued_per_cycle::samples       637770                       # Number of insts issued each cycle
system.cpu0.iq.issued_per_cycle::mean        1.775693                       # Number of insts issued each cycle
system.cpu0.iq.issued_per_cycle::stdev       1.168451                       # Number of insts issued each cycle
system.cpu0.iq.issued_per_cycle::underflows            0      0.00%      0.00% # Number of insts issued each cycle
system.cpu0.iq.issued_per_cycle::0             132176     20.72%     20.72% # Number of insts issued each cycle
system.cpu0.iq.issued_per_cycle::1              96661     15.16%     35.88% # Number of insts issued each cycle
system.cpu0.iq.issued_per_cycle::2             219577     34.43%     70.31% # Number of insts issued each cycle
system.cpu0.iq.issued_per_cycle::3             161903     25.39%     95.70% # Number of insts issued each cycle
system.cpu0.iq.issued_per_cycle::4              26305      4.12%     99.82% # Number of insts issued each cycle
system.cpu0.iq.issued_per_cycle::5               1148      0.18%    100.00% # Number of insts issued each cycle
system.cpu0.iq.issued_per_cycle::6                  0      0.00%    100.00% # Number of insts issued each cycle
system.cpu0.iq.issued_per_cycle::7                  0      0.00%    100.00% # Number of insts issued each cycle
system.cpu0.iq.issued_per_cycle::8                  0      0.00%    100.00% # Number of insts issued each cycle
system.cpu0.iq.issued_per_cycle::overflows            0      0.00%    100.00% # Number of insts issued each cycle
system.cpu0.iq.issued_per_cycle::min_value            0                       # Number of insts issued each cycle
system.cpu0.iq.issued_per_cycle::max_value            5                       # Number of insts issued each cycle
system.cpu0.iq.issued_per_cycle::total         637770                       # Number of insts issued each cycle
system.cpu0.iq.rate                          1.682290                       # Inst issue rate
system.cpu0.iq.vec_alu_accesses                     0                       # Number of vector alu accesses
system.cpu0.iq.vec_inst_queue_reads                 0                       # Number of vector instruction queue reads
system.cpu0.iq.vec_inst_queue_wakeup_accesses            0                       # Number of vector instruction queue wakeup accesses
system.cpu0.iq.vec_inst_queue_writes                0                       # Number of vector instruction queue writes
system.cpu0.itb.accesses                            0                       # DTB accesses
system.cpu0.itb.align_faults                        0                       # Number of TLB faults due to alignment restrictions
system.cpu0.itb.domain_faults                       0                       # Number of TLB faults due to domain restrictions
system.cpu0.itb.flush_entries                       0                       # Number of entries that have been flushed from TLB
system.cpu0.itb.flush_tlb                           0                       # Number of times complete TLB was flushed
system.cpu0.itb.flush_tlb_asid                      0                       # Number of times TLB was flushed by ASID
system.cpu0.itb.flush_tlb_mva                       0                       # Number of times TLB was flushed by MVA
system.cpu0.itb.flush_tlb_mva_asid                  0                       # Number of times TLB was flushed by MVA & ASID
system.cpu0.itb.hits                                0                       # DTB hits
system.cpu0.itb.inst_accesses                       0                       # ITB inst accesses
system.cpu0.itb.inst_hits                           0                       # ITB inst hits
system.cpu0.itb.inst_misses                         0                       # ITB inst misses
system.cpu0.itb.misses                              0                       # DTB misses
system.cpu0.itb.perms_faults                        0                       # Number of TLB faults due to permissions restrictions
system.cpu0.itb.prefetch_faults                     0                       # Number of TLB faults due to prefetch
system.cpu0.itb.read_accesses                       0                       # DTB read accesses
system.cpu0.itb.read_hits                           0                       # DTB read hits
system.cpu0.itb.read_misses                         0                       # DTB read misses
system.cpu0.itb.stage2_mmu.stage2_tlb.accesses            0                       # DTB accesses
system.cpu0.itb.stage2_mmu.stage2_tlb.align_faults            0                       # Number of TLB faults due to alignment restrictions
system.cpu0.itb.stage2_mmu.stage2_tlb.domain_faults            0                       # Number of TLB faults due to domain restrictions
system.cpu0.itb.stage2_mmu.stage2_tlb.flush_entries            0                       # Number of entries that have been flushed from TLB
system.cpu0.itb.stage2_mmu.stage2_tlb.flush_tlb            0                       # Number of times complete TLB was flushed
system.cpu0.itb.stage2_mmu.stage2_tlb.flush_tlb_asid            0                       # Number of times TLB was flushed by ASID
system.cpu0.itb.stage2_mmu.stage2_tlb.flush_tlb_mva            0                       # Number of times TLB was flushed by MVA
system.cpu0.itb.stage2_mmu.stage2_tlb.flush_tlb_mva_asid            0                       # Number of times TLB was flushed by MVA & ASID
system.cpu0.itb.stage2_mmu.stage2_tlb.hits            0                       # DTB hits
system.cpu0.itb.stage2_mmu.stage2_tlb.inst_accesses            0                       # ITB inst accesses
system.cpu0.itb.stage2_mmu.stage2_tlb.inst_hits            0                       # ITB inst hits
system.cpu0.itb.stage2_mmu.stage2_tlb.inst_misses            0                       # ITB inst misses
system.cpu0.itb.stage2_mmu.stage2_tlb.misses            0                       # DTB misses
system.cpu0.itb.stage2_mmu.stage2_tlb.perms_faults            0                       # Number of TLB faults due to permissions restrictions
system.cpu0.itb.stage2_mmu.stage2_tlb.prefetch_faults            0                       # Number of TLB faults due to prefetch
system.cpu0.itb.stage2_mmu.stage2_tlb.read_accesses            0                       # DTB read accesses
system.cpu0.itb.stage2_mmu.stage2_tlb.read_hits            0                       # DTB read hits
system.cpu0.itb.stage2_mmu.stage2_tlb.read_misses            0                       # DTB read misses
system.cpu0.itb.stage2_mmu.stage2_tlb.walker.walkRequestOrigin_Requested::Data            0                       # Table walker requests started/completed, data/inst
system.cpu0.itb.stage2_mmu.stage2_tlb.walker.walkRequestOrigin_Requested::Inst            0                       # Table walker requests started/completed, data/inst
system.cpu0.itb.stage2_mmu.stage2_tlb.walker.walkRequestOrigin_Requested::total            0                       # Table walker requests started/completed, data/inst
system.cpu0.itb.stage2_mmu.stage2_tlb.walker.walkRequestOrigin_Completed::Data            0                       # Table walker requests started/completed, data/inst
system.cpu0.itb.stage2_mmu.stage2_tlb.walker.walkRequestOrigin_Completed::Inst            0                       # Table walker requests started/completed, data/inst
system.cpu0.itb.stage2_mmu.stage2_tlb.walker.walkRequestOrigin_Completed::total            0                       # Table walker requests started/completed, data/inst
system.cpu0.itb.stage2_mmu.stage2_tlb.walker.walkRequestOrigin::total            0                       # Table walker requests started/completed, data/inst
system.cpu0.itb.stage2_mmu.stage2_tlb.walker.walks            0                       # Table walker walks requested
system.cpu0.itb.stage2_mmu.stage2_tlb.write_accesses            0                       # DTB write accesses
system.cpu0.itb.stage2_mmu.stage2_tlb.write_hits            0                       # DTB write hits
system.cpu0.itb.stage2_mmu.stage2_tlb.write_misses            0                       # DTB write misses
system.cpu0.itb.walker.walkRequestOrigin_Requested::Data            0                       # Table walker requests started/completed, data/inst
system.cpu0.itb.walker.walkRequestOrigin_Requested::Inst            0                       # Table walker requests started/completed, data/inst
system.cpu0.itb.walker.walkRequestOrigin_Requested::total            0                       # Table walker requests started/completed, data/inst
system.cpu0.itb.walker.walkRequestOrigin_Completed::Data            0                       # Table walker requests started/completed, data/inst
system.cpu0.itb.walker.walkRequestOrigin_Completed::Inst            0                       # Table walker requests started/completed, data/inst
system.cpu0.itb.walker.walkRequestOrigin_Completed::total            0                       # Table walker requests started/completed, data/inst
system.cpu0.itb.walker.walkRequestOrigin::total            0                       # Table walker requests started/completed, data/inst
system.cpu0.itb.walker.walks                        0                       # Table walker walks requested
system.cpu0.itb.write_accesses                      0                       # DTB write accesses
system.cpu0.itb.write_hits                          0                       # DTB write hits
system.cpu0.itb.write_misses                        0                       # DTB write misses
system.cpu0.memDep0.conflictingLoads            16479                       # Number of conflicting loads.
system.cpu0.memDep0.conflictingStores           11583                       # Number of conflicting stores.
system.cpu0.memDep0.insertedLoads              226884                       # Number of loads inserted to the mem dependence unit.
system.cpu0.memDep0.insertedStores             181145                       # Number of stores inserted to the mem dependence unit.
system.cpu0.misc_regfile_reads                 430613                       # number of misc regfile reads
system.cpu0.misc_regfile_writes                  4789                       # number of misc regfile writes
system.cpu0.numCycles                          673180                       # number of cpu cycles simulated
system.cpu0.numWorkItemsCompleted                   0                       # number of work items this cpu completed
system.cpu0.numWorkItemsStarted                     0                       # number of work items this cpu started
system.cpu0.rename.BlockCycles                  13557                       # Number of cycles rename is blocking
system.cpu0.rename.CommittedMaps              1224842                       # Number of HB maps that are committed
system.cpu0.rename.IQFullEvents                    76                       # Number of times rename has blocked due to IQ full
system.cpu0.rename.IdleCycles                   85221                       # Number of cycles rename is idle
system.cpu0.rename.ROBFullEvents                10966                       # Number of times rename has blocked due to ROB full
system.cpu0.rename.RenameLookups              5079073                       # Number of register rename lookups that rename has made
system.cpu0.rename.RenamedInsts               1151433                       # Number of instructions processed by rename
system.cpu0.rename.RenamedOperands            1286510                       # Number of destination operands rename has renamed
system.cpu0.rename.RunCycles                   417631                       # Number of cycles rename is running
system.cpu0.rename.SQFullEvents                 44961                       # Number of times rename has blocked due to SQ full
system.cpu0.rename.SquashCycles                  3097                       # Number of cycles rename is squashing
system.cpu0.rename.SquashedInsts                 6417                       # Number of squashed instructions processed by rename
system.cpu0.rename.UnblockCycles                76984                       # Number of cycles rename is unblocking
system.cpu0.rename.UndoneMaps                   61643                       # Number of HB maps that are undone due to squashing
system.cpu0.rename.int_rename_lookups         1197668                       # Number of integer rename lookups
system.cpu0.rename.serializeStallCycles         41280                       # count of cycles rename stalled for serializing inst
system.cpu0.rename.serializingInsts              1255                       # count of serializing insts renamed
system.cpu0.rename.skidInsts                    73609                       # count of insts added to the skid buffer
system.cpu0.rename.tempSerializingInsts          1250                       # count of temporary serializing insts renamed
system.cpu0.rename.vec_rename_lookups            1342                       # Number of vector rename lookups
system.cpu0.rob.rob_reads                     1745305                       # The number of ROB reads
system.cpu0.rob.rob_writes                    2288967                       # The number of ROB writes
system.cpu0.timesIdled                            308                       # Number of times that the entire CPU went into an idle state and unscheduled itself
system.cpu0.vec_regfile_reads                    1270                       # number of vector regfile reads
system.cpu0.vec_regfile_writes                   1234                       # number of vector regfile writes
system.cpu0.workload.numSyscalls                   23                       # Number of system calls
system.cpu1.branchPred.BTBCorrect                   0                       # Number of correct BTB predictions (this stat may not work properly.
system.cpu1.branchPred.BTBHitPct            90.710204                       # BTB Hit Percentage
system.cpu1.branchPred.BTBHits                  80313                       # Number of BTB hits
system.cpu1.branchPred.BTBLookups               88538                       # Number of BTB lookups
system.cpu1.branchPred.RASInCorrect                 0                       # Number of incorrect RAS predictions.
system.cpu1.branchPred.condIncorrect             4205                       # Number of conditional branches incorrect
system.cpu1.branchPred.condPredicted           165413                       # Number of conditional branches predicted
system.cpu1.branchPred.indirectHits              3240                       # Number of indirect target hits.
system.cpu1.branchPred.indirectLookups           3400                       # Number of indirect predictor lookups.
system.cpu1.branchPred.indirectMisses             160                       # Number of indirect misses.
system.cpu1.branchPred.lookups                 212673                       # Number of BP lookups
system.cpu1.branchPred.usedRAS                  13893                       # Number of times the RAS was used to get a target.
system.cpu1.branchPredindirectMispredicted           65                       # Number of mispredicted indirect branches.
system.cpu1.cc_regfile_reads                  3719444                       # number of cc regfile reads
system.cpu1.cc_regfile_writes                  615002                       # number of cc regfile writes
system.cpu1.commit.amos                             0                       # Number of atomic instructions committed
system.cpu1.commit.branchMispredicts             2876                       # The number of times a branch was mispredicted
system.cpu1.commit.branches                    188848                       # Number of branches committed
system.cpu1.commit.bw_lim_events                25048                       # number cycles where commit BW limit reached
system.cpu1.commit.commitNonSpecStalls           2250                       # The number of times commit has been forced to stall to communicate backwards
system.cpu1.commit.commitSquashedInsts          36739                       # The number of squashed insts skipped by commit
system.cpu1.commit.committedInsts              928325                       # Number of instructions committed
system.cpu1.commit.committedOps               1023212                       # Number of ops (including micro ops) committed
system.cpu1.commit.committed_per_cycle::samples       632547                       # Number of insts commited each cycle
system.cpu1.commit.committed_per_cycle::mean     1.617606                       # Number of insts commited each cycle
system.cpu1.commit.committed_per_cycle::stdev     2.110272                       # Number of insts commited each cycle
system.cpu1.commit.committed_per_cycle::underflows            0      0.00%      0.00% # Number of insts commited each cycle
system.cpu1.commit.committed_per_cycle::0       259010     40.95%     40.95% # Number of insts commited each cycle
system.cpu1.commit.committed_per_cycle::1       151208     23.90%     64.85% # Number of insts commited each cycle
system.cpu1.commit.committed_per_cycle::2        68505     10.83%     75.68% # Number of insts commited each cycle
system.cpu1.commit.committed_per_cycle::3        57689      9.12%     84.80% # Number of insts commited each cycle
system.cpu1.commit.committed_per_cycle::4        29063      4.59%     89.40% # Number of insts commited each cycle
system.cpu1.commit.committed_per_cycle::5        17877      2.83%     92.22% # Number of insts commited each cycle
system.cpu1.commit.committed_per_cycle::6        13123      2.07%     94.30% # Number of insts commited each cycle
system.cpu1.commit.committed_per_cycle::7        11024      1.74%     96.04% # Number of insts commited each cycle
system.cpu1.commit.committed_per_cycle::8        25048      3.96%    100.00% # Number of insts commited each cycle
system.cpu1.commit.committed_per_cycle::overflows            0      0.00%    100.00% # Number of insts commited each cycle
system.cpu1.commit.committed_per_cycle::min_value            0                       # Number of insts commited each cycle
system.cpu1.commit.committed_per_cycle::max_value            8                       # Number of insts commited each cycle
system.cpu1.commit.committed_per_cycle::total       632547                       # Number of insts commited each cycle
system.cpu1.commit.fp_insts                         0                       # Number of committed floating point instructions.
system.cpu1.commit.function_calls               11422                       # Number of function calls committed.
system.cpu1.commit.int_insts                   834203                       # Number of committed integer instructions.
system.cpu1.commit.loads                       201380                       # Number of loads committed
system.cpu1.commit.membars                       1114                       # Number of memory barriers committed
system.cpu1.commit.op_class_0::No_OpClass            0      0.00%      0.00% # Class of committed instruction
system.cpu1.commit.op_class_0::IntAlu          653549     63.87%     63.87% # Class of committed instruction
system.cpu1.commit.op_class_0::IntMult           3215      0.31%     64.19% # Class of committed instruction
system.cpu1.commit.op_class_0::IntDiv               0      0.00%     64.19% # Class of committed instruction
system.cpu1.commit.op_class_0::FloatAdd             0      0.00%     64.19% # Class of committed instruction
system.cpu1.commit.op_class_0::FloatCmp             0      0.00%     64.19% # Class of committed instruction
system.cpu1.commit.op_class_0::FloatCvt             0      0.00%     64.19% # Class of committed instruction
system.cpu1.commit.op_class_0::FloatMult            0      0.00%     64.19% # Class of committed instruction
system.cpu1.commit.op_class_0::FloatMultAcc            0      0.00%     64.19% # Class of committed instruction
system.cpu1.commit.op_class_0::FloatDiv             0      0.00%     64.19% # Class of committed instruction
system.cpu1.commit.op_class_0::FloatMisc            0      0.00%     64.19% # Class of committed instruction
system.cpu1.commit.op_class_0::FloatSqrt            0      0.00%     64.19% # Class of committed instruction
system.cpu1.commit.op_class_0::SimdAdd              0      0.00%     64.19% # Class of committed instruction
system.cpu1.commit.op_class_0::SimdAddAcc            0      0.00%     64.19% # Class of committed instruction
system.cpu1.commit.op_class_0::SimdAlu              0      0.00%     64.19% # Class of committed instruction
system.cpu1.commit.op_class_0::SimdCmp              0      0.00%     64.19% # Class of committed instruction
system.cpu1.commit.op_class_0::SimdCvt              0      0.00%     64.19% # Class of committed instruction
system.cpu1.commit.op_class_0::SimdMisc             0      0.00%     64.19% # Class of committed instruction
system.cpu1.commit.op_class_0::SimdMult             0      0.00%     64.19% # Class of committed instruction
system.cpu1.commit.op_class_0::SimdMultAcc            0      0.00%     64.19% # Class of committed instruction
system.cpu1.commit.op_class_0::SimdShift            0      0.00%     64.19% # Class of committed instruction
system.cpu1.commit.op_class_0::SimdShiftAcc            0      0.00%     64.19% # Class of committed instruction
system.cpu1.commit.op_class_0::SimdDiv              0      0.00%     64.19% # Class of committed instruction
system.cpu1.commit.op_class_0::SimdSqrt             0      0.00%     64.19% # Class of committed instruction
system.cpu1.commit.op_class_0::SimdFloatAdd            0      0.00%     64.19% # Class of committed instruction
system.cpu1.commit.op_class_0::SimdFloatAlu            0      0.00%     64.19% # Class of committed instruction
system.cpu1.commit.op_class_0::SimdFloatCmp            0      0.00%     64.19% # Class of committed instruction
system.cpu1.commit.op_class_0::SimdFloatCvt            0      0.00%     64.19% # Class of committed instruction
system.cpu1.commit.op_class_0::SimdFloatDiv            0      0.00%     64.19% # Class of committed instruction
system.cpu1.commit.op_class_0::SimdFloatMisc            0      0.00%     64.19% # Class of committed instruction
system.cpu1.commit.op_class_0::SimdFloatMult            0      0.00%     64.19% # Class of committed instruction
system.cpu1.commit.op_class_0::SimdFloatMultAcc            0      0.00%     64.19% # Class of committed instruction
system.cpu1.commit.op_class_0::SimdFloatSqrt            0      0.00%     64.19% # Class of committed instruction
system.cpu1.commit.op_class_0::SimdReduceAdd            0      0.00%     64.19% # Class of committed instruction
system.cpu1.commit.op_class_0::SimdReduceAlu            0      0.00%     64.19% # Class of committed instruction
system.cpu1.commit.op_class_0::SimdReduceCmp            0      0.00%     64.19% # Class of committed instruction
system.cpu1.commit.op_class_0::SimdFloatReduceAdd            0      0.00%     64.19% # Class of committed instruction
system.cpu1.commit.op_class_0::SimdFloatReduceCmp            0      0.00%     64.19% # Class of committed instruction
system.cpu1.commit.op_class_0::SimdAes              0      0.00%     64.19% # Class of committed instruction
system.cpu1.commit.op_class_0::SimdAesMix            0      0.00%     64.19% # Class of committed instruction
system.cpu1.commit.op_class_0::SimdSha1Hash            0      0.00%     64.19% # Class of committed instruction
system.cpu1.commit.op_class_0::SimdSha1Hash2            0      0.00%     64.19% # Class of committed instruction
system.cpu1.commit.op_class_0::SimdSha256Hash            0      0.00%     64.19% # Class of committed instruction
system.cpu1.commit.op_class_0::SimdSha256Hash2            0      0.00%     64.19% # Class of committed instruction
system.cpu1.commit.op_class_0::SimdShaSigma2            0      0.00%     64.19% # Class of committed instruction
system.cpu1.commit.op_class_0::SimdShaSigma3            0      0.00%     64.19% # Class of committed instruction
system.cpu1.commit.op_class_0::SimdPredAlu            0      0.00%     64.19% # Class of committed instruction
system.cpu1.commit.op_class_0::MemRead         201380     19.68%     83.87% # Class of committed instruction
system.cpu1.commit.op_class_0::MemWrite        165068     16.13%    100.00% # Class of committed instruction
system.cpu1.commit.op_class_0::FloatMemRead            0      0.00%    100.00% # Class of committed instruction
system.cpu1.commit.op_class_0::FloatMemWrite            0      0.00%    100.00% # Class of committed instruction
system.cpu1.commit.op_class_0::IprAccess            0      0.00%    100.00% # Class of committed instruction
system.cpu1.commit.op_class_0::InstPrefetch            0      0.00%    100.00% # Class of committed instruction
system.cpu1.commit.op_class_0::total          1023212                       # Class of committed instruction
system.cpu1.commit.refs                        366448                       # Number of memory references committed
system.cpu1.commit.swp_count                        0                       # Number of s/w prefetches committed
system.cpu1.commit.vec_insts                        0                       # Number of committed Vector instructions.
system.cpu1.committedInsts                     928325                       # Number of Instructions Simulated
system.cpu1.committedOps                      1023212                       # Number of Ops (including micro ops) Simulated
system.cpu1.cpi                              0.725156                       # CPI: Cycles Per Instruction
system.cpu1.cpi_total                        0.725156                       # CPI: Total CPI of All Threads
system.cpu1.decode.BlockedCycles               166691                       # Number of cycles decode is blocked
system.cpu1.decode.BranchMispred                 1329                       # Number of times decode detected a branch misprediction
system.cpu1.decode.BranchResolved               79329                       # Number of times decode resolved a branch
system.cpu1.decode.DecodedInsts               1083724                       # Number of instructions handled by decode
system.cpu1.decode.IdleCycles                   48020                       # Number of cycles decode is idle
system.cpu1.decode.RunCycles                   383812                       # Number of cycles decode is running
system.cpu1.decode.SquashCycles                  2930                       # Number of cycles decode is squashing
system.cpu1.decode.SquashedInsts                22210                       # Number of squashed instructions handled by decode
system.cpu1.decode.UnblockCycles                37172                       # Number of cycles decode is unblocking
system.cpu1.dtb.accesses                            0                       # DTB accesses
system.cpu1.dtb.align_faults                        0                       # Number of TLB faults due to alignment restrictions
system.cpu1.dtb.domain_faults                       0                       # Number of TLB faults due to domain restrictions
system.cpu1.dtb.flush_entries                       0                       # Number of entries that have been flushed from TLB
system.cpu1.dtb.flush_tlb                           0                       # Number of times complete TLB was flushed
system.cpu1.dtb.flush_tlb_asid                      0                       # Number of times TLB was flushed by ASID
system.cpu1.dtb.flush_tlb_mva                       0                       # Number of times TLB was flushed by MVA
system.cpu1.dtb.flush_tlb_mva_asid                  0                       # Number of times TLB was flushed by MVA & ASID
system.cpu1.dtb.hits                                0                       # DTB hits
system.cpu1.dtb.inst_accesses                       0                       # ITB inst accesses
system.cpu1.dtb.inst_hits                           0                       # ITB inst hits
system.cpu1.dtb.inst_misses                         0                       # ITB inst misses
system.cpu1.dtb.misses                              0                       # DTB misses
system.cpu1.dtb.perms_faults                        0                       # Number of TLB faults due to permissions restrictions
system.cpu1.dtb.prefetch_faults                     0                       # Number of TLB faults due to prefetch
system.cpu1.dtb.read_accesses                       0                       # DTB read accesses
system.cpu1.dtb.read_hits                           0                       # DTB read hits
system.cpu1.dtb.read_misses                         0                       # DTB read misses
system.cpu1.dtb.stage2_mmu.stage2_tlb.accesses            0                       # DTB accesses
system.cpu1.dtb.stage2_mmu.stage2_tlb.align_faults            0                       # Number of TLB faults due to alignment restrictions
system.cpu1.dtb.stage2_mmu.stage2_tlb.domain_faults            0                       # Number of TLB faults due to domain restrictions
system.cpu1.dtb.stage2_mmu.stage2_tlb.flush_entries            0                       # Number of entries that have been flushed from TLB
system.cpu1.dtb.stage2_mmu.stage2_tlb.flush_tlb            0                       # Number of times complete TLB was flushed
system.cpu1.dtb.stage2_mmu.stage2_tlb.flush_tlb_asid            0                       # Number of times TLB was flushed by ASID
system.cpu1.dtb.stage2_mmu.stage2_tlb.flush_tlb_mva            0                       # Number of times TLB was flushed by MVA
system.cpu1.dtb.stage2_mmu.stage2_tlb.flush_tlb_mva_asid            0                       # Number of times TLB was flushed by MVA & ASID
system.cpu1.dtb.stage2_mmu.stage2_tlb.hits            0                       # DTB hits
system.cpu1.dtb.stage2_mmu.stage2_tlb.inst_accesses            0                       # ITB inst accesses
system.cpu1.dtb.stage2_mmu.stage2_tlb.inst_hits            0                       # ITB inst hits
system.cpu1.dtb.stage2_mmu.stage2_tlb.inst_misses            0                       # ITB inst misses
system.cpu1.dtb.stage2_mmu.stage2_tlb.misses            0                       # DTB misses
system.cpu1.dtb.stage2_mmu.stage2_tlb.perms_faults            0                       # Number of TLB faults due to permissions restrictions
system.cpu1.dtb.stage2_mmu.stage2_tlb.prefetch_faults            0                       # Number of TLB faults due to prefetch
system.cpu1.dtb.stage2_mmu.stage2_tlb.read_accesses            0                       # DTB read accesses
system.cpu1.dtb.stage2_mmu.stage2_tlb.read_hits            0                       # DTB read hits
system.cpu1.dtb.stage2_mmu.stage2_tlb.read_misses            0                       # DTB read misses
system.cpu1.dtb.stage2_mmu.stage2_tlb.walker.walkRequestOrigin_Requested::Data            0                       # Table walker requests started/completed, data/inst
system.cpu1.dtb.stage2_mmu.stage2_tlb.walker.walkRequestOrigin_Requested::Inst            0                       # Table walker requests started/completed, data/inst
system.cpu1.dtb.stage2_mmu.stage2_tlb.walker.walkRequestOrigin_Requested::total            0                       # Table walker requests started/completed, data/inst
system.cpu1.dtb.stage2_mmu.stage2_tlb.walker.walkRequestOrigin_Completed::Data            0                       # Table walker requests started/completed, data/inst
system.cpu1.dtb.stage2_mmu.stage2_tlb.walker.walkRequestOrigin_Completed::Inst            0                       # Table walker requests started/completed, data/inst
system.cpu1.dtb.stage2_mmu.stage2_tlb.walker.walkRequestOrigin_Completed::total            0                       # Table walker requests started/completed, data/inst
system.cpu1.dtb.stage2_mmu.stage2_tlb.walker.walkRequestOrigin::total            0                       # Table walker requests started/completed, data/inst
system.cpu1.dtb.stage2_mmu.stage2_tlb.walker.walks            0                       # Table walker walks requested
system.cpu1.dtb.stage2_mmu.stage2_tlb.write_accesses            0                       # DTB write accesses
system.cpu1.dtb.stage2_mmu.stage2_tlb.write_hits            0                       # DTB write hits
system.cpu1.dtb.stage2_mmu.stage2_tlb.write_misses            0                       # DTB write misses
system.cpu1.dtb.walker.walkRequestOrigin_Requested::Data            0                       # Table walker requests started/completed, data/inst
system.cpu1.dtb.walker.walkRequestOrigin_Requested::Inst            0                       # Table walker requests started/completed, data/inst
system.cpu1.dtb.walker.walkRequestOrigin_Requested::total            0                       # Table walker requests started/completed, data/inst
system.cpu1.dtb.walker.walkRequestOrigin_Completed::Data            0                       # Table walker requests started/completed, data/inst
system.cpu1.dtb.walker.walkRequestOrigin_Completed::Inst            0                       # Table walker requests started/completed, data/inst
system.cpu1.dtb.walker.walkRequestOrigin_Completed::total            0                       # Table walker requests started/completed, data/inst
system.cpu1.dtb.walker.walkRequestOrigin::total            0                       # Table walker requests started/completed, data/inst
system.cpu1.dtb.walker.walks                        0                       # Table walker walks requested
system.cpu1.dtb.write_accesses                      0                       # DTB write accesses
system.cpu1.dtb.write_hits                          0                       # DTB write hits
system.cpu1.dtb.write_misses                        0                       # DTB write misses
system.cpu1.fetch.Branches                     212673                       # Number of branches that fetch encountered
system.cpu1.fetch.CacheLines                   257142                       # Number of cache lines fetched
system.cpu1.fetch.Cycles                       620884                       # Number of cycles fetch has run and was not squashing or blocked
system.cpu1.fetch.IcacheSquashes                  249                       # Number of outstanding Icache misses that were squashed
system.cpu1.fetch.IcacheWaitRetryStallCycles          451                       # Number of stall cycles due to full MSHR
system.cpu1.fetch.Insts                       1043757                       # Number of instructions fetch has processed
system.cpu1.fetch.MiscStallCycles                 176                       # Number of cycles fetch has spent waiting on interrupts, or bad addresses, or out of MSHRs
system.cpu1.fetch.PendingTrapStallCycles           67                       # Number of stall cycles due to pending traps
system.cpu1.fetch.SquashCycles                   8518                       # Number of cycles fetch has spent squashing
system.cpu1.fetch.branchRate                 0.315923                       # Number of branch fetches per cycle
system.cpu1.fetch.icacheStallCycles             12788                       # Number of cycles fetch is stalled on an Icache miss
system.cpu1.fetch.predictedBranches             97446                       # Number of branches that fetch has predicted taken
system.cpu1.fetch.rate                       1.550487                       # Number of inst fetches per cycle
system.cpu1.fetch.rateDist::samples            638625                       # Number of instructions fetched each cycle (Total)
system.cpu1.fetch.rateDist::mean             1.798470                       # Number of instructions fetched each cycle (Total)
system.cpu1.fetch.rateDist::stdev            1.250921                       # Number of instructions fetched each cycle (Total)
system.cpu1.fetch.rateDist::underflows              0      0.00%      0.00% # Number of instructions fetched each cycle (Total)
system.cpu1.fetch.rateDist::0                  162533     25.45%     25.45% # Number of instructions fetched each cycle (Total)
[...]
system.mem_ctrls.wrQLenPdf::39                      0                       # What write queue length does an incoming req see
system.mem_ctrls.wrQLenPdf::40                      0                       # What write queue length does an incoming req see
system.mem_ctrls.wrQLenPdf::41                      0                       # What write queue length does an incoming req see
system.mem_ctrls.wrQLenPdf::42                      0                       # What write queue length does an incoming req see
system.mem_ctrls.wrQLenPdf::43                      0                       # What write queue length does an incoming req see
system.mem_ctrls.wrQLenPdf::44                      0                       # What write queue length does an incoming req see
system.mem_ctrls.wrQLenPdf::45                      0                       # What write queue length does an incoming req see
system.mem_ctrls.wrQLenPdf::46                      0                       # What write queue length does an incoming req see
system.mem_ctrls.wrQLenPdf::47                      0                       # What write queue length does an incoming req see
system.mem_ctrls.wrQLenPdf::48                      0                       # What write queue length does an incoming req see
system.mem_ctrls.wrQLenPdf::49                      0                       # What write queue length does an incoming req see
system.mem_ctrls.wrQLenPdf::50                      0                       # What write queue length does an incoming req see
system.mem_ctrls.wrQLenPdf::51                      0                       # What write queue length does an incoming req see
system.mem_ctrls.wrQLenPdf::52                      0                       # What write queue length does an incoming req see
system.mem_ctrls.wrQLenPdf::53                      0                       # What write queue length does an incoming req see
system.mem_ctrls.wrQLenPdf::54                      0                       # What write queue length does an incoming req see
system.mem_ctrls.wrQLenPdf::55                      0                       # What write queue length does an incoming req see
system.mem_ctrls.wrQLenPdf::56                      0                       # What write queue length does an incoming req see
system.mem_ctrls.wrQLenPdf::57                      0                       # What write queue length does an incoming req see
system.mem_ctrls.wrQLenPdf::58                      0                       # What write queue length does an incoming req see
system.mem_ctrls.wrQLenPdf::59                      0                       # What write queue length does an incoming req see
system.mem_ctrls.wrQLenPdf::60                      0                       # What write queue length does an incoming req see
system.mem_ctrls.wrQLenPdf::61                      0                       # What write queue length does an incoming req see
system.mem_ctrls.wrQLenPdf::62                      0                       # What write queue length does an incoming req see
system.mem_ctrls.wrQLenPdf::63                      0                       # What write queue length does an incoming req see
system.mem_ctrls.bytesPerActivate::samples          938                       # Bytes accessed per row activation
system.mem_ctrls.bytesPerActivate::mean    337.876333                       # Bytes accessed per row activation
system.mem_ctrls.bytesPerActivate::gmean   200.576543                       # Bytes accessed per row activation
system.mem_ctrls.bytesPerActivate::stdev   334.139321                       # Bytes accessed per row activation
system.mem_ctrls.bytesPerActivate::0-127          306     32.62%     32.62% # Bytes accessed per row activation
system.mem_ctrls.bytesPerActivate::128-255          243     25.91%     58.53% # Bytes accessed per row activation
system.mem_ctrls.bytesPerActivate::256-383           70      7.46%     65.99% # Bytes accessed per row activation
system.mem_ctrls.bytesPerActivate::384-511           50      5.33%     71.32% # Bytes accessed per row activation
system.mem_ctrls.bytesPerActivate::512-639           50      5.33%     76.65% # Bytes accessed per row activation
system.mem_ctrls.bytesPerActivate::640-767           34      3.62%     80.28% # Bytes accessed per row activation
system.mem_ctrls.bytesPerActivate::768-895           66      7.04%     87.31% # Bytes accessed per row activation
system.mem_ctrls.bytesPerActivate::896-1023           25      2.67%     89.98% # Bytes accessed per row activation
system.mem_ctrls.bytesPerActivate::1024-1151           94     10.02%    100.00% # Bytes accessed per row activation
system.mem_ctrls.bytesPerActivate::total          938                       # Bytes accessed per row activation
system.mem_ctrls.bytesReadDRAM                 317888                       # Total number of bytes read from DRAM
system.mem_ctrls.bytesReadWrQ                       0                       # Total number of bytes read from write queue
system.mem_ctrls.bytesWritten                       0                       # Total number of bytes written to DRAM
system.mem_ctrls.bytesReadSys                  317888                       # Total read bytes from the system interface side
system.mem_ctrls.bytesWrittenSys                    0                       # Total written bytes from the system interface side
system.mem_ctrls.avgRdBW                       944.44                       # Average DRAM read bandwidth in MiByte/s
system.mem_ctrls.avgWrBW                         0.00                       # Average achieved write bandwidth in MiByte/s
system.mem_ctrls.avgRdBWSys                    944.44                       # Average system read bandwidth in MiByte/s
system.mem_ctrls.avgWrBWSys                      0.00                       # Average system write bandwidth in MiByte/s
system.mem_ctrls.peakBW                      12800.00                       # Theoretical peak bandwidth in MiByte/s
system.mem_ctrls.busUtil                         7.38                       # Data bus utilization in percentage
system.mem_ctrls.busUtilRead                     7.38                       # Data bus utilization in percentage for reads
system.mem_ctrls.busUtilWrite                    0.00                       # Data bus utilization in percentage for writes
system.mem_ctrls.totGap                     336414506                       # Total gap between requests
system.mem_ctrls.avgGap                      67729.92                       # Average gap between requests
system.mem_ctrls.masterReadBytes::.cpu0.inst        25024                       # Per-master bytes read from memory
system.mem_ctrls.masterReadBytes::.cpu0.data        19776                       # Per-master bytes read from memory
system.mem_ctrls.masterReadBytes::.cpu1.inst        24960                       # Per-master bytes read from memory
system.mem_ctrls.masterReadBytes::.cpu1.data        42880                       # Per-master bytes read from memory
system.mem_ctrls.masterReadBytes::.l2.prefetcher       205248                       # Per-master bytes read from memory
system.mem_ctrls.masterReadRate::.cpu0.inst 74345753.506868153811                       # Per-master bytes read from memory rate (Bytes/sec)
system.mem_ctrls.masterReadRate::.cpu0.data 58754060.955555655062                       # Per-master bytes read from memory rate (Bytes/sec)
system.mem_ctrls.masterReadRate::.cpu1.inst 74155610.914778977633                       # Per-master bytes read from memory rate (Bytes/sec)
system.mem_ctrls.masterReadRate::.cpu1.data 127395536.699748516083                       # Per-master bytes read from memory rate (Bytes/sec)
system.mem_ctrls.masterReadRate::.l2.prefetcher 609787292.829990267754                       # Per-master bytes read from memory rate (Bytes/sec)
system.mem_ctrls.masterReadAccesses::.cpu0.inst          391                       # Per-master read serviced memory accesses
system.mem_ctrls.masterReadAccesses::.cpu0.data          309                       # Per-master read serviced memory accesses
system.mem_ctrls.masterReadAccesses::.cpu1.inst          390                       # Per-master read serviced memory accesses
system.mem_ctrls.masterReadAccesses::.cpu1.data          670                       # Per-master read serviced memory accesses
system.mem_ctrls.masterReadAccesses::.l2.prefetcher         3207                       # Per-master read serviced memory accesses
system.mem_ctrls.masterReadTotalLat::.cpu0.inst     12853500                       # Per-master read total memory access latency
system.mem_ctrls.masterReadTotalLat::.cpu0.data     14118667                       # Per-master read total memory access latency
system.mem_ctrls.masterReadTotalLat::.cpu1.inst     12120000                       # Per-master read total memory access latency
system.mem_ctrls.masterReadTotalLat::.cpu1.data     23424380                       # Per-master read total memory access latency
system.mem_ctrls.masterReadTotalLat::.l2.prefetcher    125071952                       # Per-master read total memory access latency
system.mem_ctrls.masterReadAvgLat::.cpu0.inst     32873.40                       # Per-master read average memory access latency
system.mem_ctrls.masterReadAvgLat::.cpu0.data     45691.48                       # Per-master read average memory access latency
system.mem_ctrls.masterReadAvgLat::.cpu1.inst     31076.92                       # Per-master read average memory access latency
system.mem_ctrls.masterReadAvgLat::.cpu1.data     34961.76                       # Per-master read average memory access latency
system.mem_ctrls.masterReadAvgLat::.l2.prefetcher     38999.67                       # Per-master read average memory access latency
system.mem_ctrls.pageHitRate                    81.01                       # Row buffer hit rate, read and write combined
system.mem_ctrls.rank1.actEnergy              3305820                       # Energy for activate commands per rank (pJ)
system.mem_ctrls.rank1.preEnergy              1745700                       # Energy for precharge commands per rank (pJ)
system.mem_ctrls.rank1.readEnergy            15550920                       # Energy for read commands per rank (pJ)
system.mem_ctrls.rank1.writeEnergy                  0                       # Energy for write commands per rank (pJ)
system.mem_ctrls.rank1.refreshEnergy     26429520.000000                       # Energy for refresh commands per rank (pJ)
system.mem_ctrls.rank1.actBackEnergy        148756890                       # Energy for active background per rank (pJ)
system.mem_ctrls.rank1.preBackEnergy          3981600                       # Energy for precharge background per rank (pJ)
system.mem_ctrls.rank1.actPowerDownEnergy            0                       # Energy for active power-down per rank (pJ)
system.mem_ctrls.rank1.prePowerDownEnergy            0                       # Energy for precharge power-down per rank (pJ)
system.mem_ctrls.rank1.selfRefreshEnergy            0                       # Energy for self refresh per rank (pJ)
system.mem_ctrls.rank1.totalEnergy          199770450                       # Total energy per rank (pJ)
system.mem_ctrls.rank1.averagePower        593.513612                       # Core power per rank (mW)
system.mem_ctrls.rank1.totalIdleTime                0                       # Total Idle time Per DRAM Rank
system.mem_ctrls.rank1.memoryStateTime::IDLE      9138853                       # Time in different power states
system.mem_ctrls.rank1.memoryStateTime::REF     11180000                       # Time in different power states
system.mem_ctrls.rank1.memoryStateTime::SREF            0                       # Time in different power states
system.mem_ctrls.rank1.memoryStateTime::PRE_PDN            0                       # Time in different power states
system.mem_ctrls.rank1.memoryStateTime::ACT    316270647                       # Time in different power states
system.mem_ctrls.rank1.memoryStateTime::ACT_PDN            0                       # Time in different power states
system.mem_ctrls.rank0.actEnergy              3427200                       # Energy for activate commands per rank (pJ)
system.mem_ctrls.rank0.preEnergy              1814010                       # Energy for precharge commands per rank (pJ)
system.mem_ctrls.rank0.readEnergy            19913460                       # Energy for read commands per rank (pJ)
system.mem_ctrls.rank0.writeEnergy                  0                       # Energy for write commands per rank (pJ)
system.mem_ctrls.rank0.refreshEnergy     26429520.000000                       # Energy for refresh commands per rank (pJ)
system.mem_ctrls.rank0.actBackEnergy        151606320                       # Energy for active background per rank (pJ)
system.mem_ctrls.rank0.preBackEnergy          1582080                       # Energy for precharge background per rank (pJ)
system.mem_ctrls.rank0.actPowerDownEnergy            0                       # Energy for active power-down per rank (pJ)
system.mem_ctrls.rank0.prePowerDownEnergy            0                       # Energy for precharge power-down per rank (pJ)
system.mem_ctrls.rank0.selfRefreshEnergy            0                       # Energy for self refresh per rank (pJ)
system.mem_ctrls.rank0.totalEnergy          204772590                       # Total energy per rank (pJ)
system.mem_ctrls.rank0.averagePower        608.374860                       # Core power per rank (mW)
system.mem_ctrls.rank0.totalIdleTime                0                       # Total Idle time Per DRAM Rank
system.mem_ctrls.rank0.memoryStateTime::IDLE      2867533                       # Time in different power states
system.mem_ctrls.rank0.memoryStateTime::REF     11180000                       # Time in different power states
system.mem_ctrls.rank0.memoryStateTime::SREF            0                       # Time in different power states
system.mem_ctrls.rank0.memoryStateTime::PRE_PDN            0                       # Time in different power states
system.mem_ctrls.rank0.memoryStateTime::ACT    322541967                       # Time in different power states
system.mem_ctrls.rank0.memoryStateTime::ACT_PDN            0                       # Time in different power states
system.cpu_clk_domain.clock                       500                       # Clock period in ticks
system.tol2bus.pwrStateResidencyTicks::UNDEFINED    336589500                       # Cumulative time (in ticks) in various power states
system.tol2bus.trans_dist::ReadResp              1715                       # Transaction distribution
system.tol2bus.trans_dist::WritebackDirty         1843                       # Transaction distribution
system.tol2bus.trans_dist::WritebackClean          382                       # Transaction distribution
system.tol2bus.trans_dist::HardPFReq             4858                       # Transaction distribution
system.tol2bus.trans_dist::ReadExReq             3185                       # Transaction distribution
system.tol2bus.trans_dist::ReadExResp            3185                       # Transaction distribution
system.tol2bus.trans_dist::ReadCleanReq           825                       # Transaction distribution
system.tol2bus.trans_dist::ReadSharedReq          890                       # Transaction distribution
system.tol2bus.pkt_count_system.cpu0.icache.mem_side::system.l2.cpu_side          925                       # Packet count per connected master and slave (bytes)
system.tol2bus.pkt_count_system.cpu0.dcache.mem_side::system.l2.cpu_side         5300                       # Packet count per connected master and slave (bytes)
system.tol2bus.pkt_count_system.cpu1.icache.mem_side::system.l2.cpu_side          923                       # Packet count per connected master and slave (bytes)
system.tol2bus.pkt_count_system.cpu1.dcache.mem_side::system.l2.cpu_side         4877                       # Packet count per connected master and slave (bytes)
system.tol2bus.pkt_count::total                 12025                       # Packet count per connected master and slave (bytes)
system.tol2bus.pkt_size_system.cpu0.icache.mem_side::system.l2.cpu_side        32768                       # Cumulative packet size per connected master and slave (bytes)
system.tol2bus.pkt_size_system.cpu0.dcache.mem_side::system.l2.cpu_side       204288                       # Cumulative packet size per connected master and slave (bytes)
system.tol2bus.pkt_size_system.cpu1.icache.mem_side::system.l2.cpu_side        32704                       # Cumulative packet size per connected master and slave (bytes)
system.tol2bus.pkt_size_system.cpu1.dcache.mem_side::system.l2.cpu_side       186240                       # Cumulative packet size per connected master and slave (bytes)
system.tol2bus.pkt_size::total                 456000                       # Cumulative packet size per connected master and slave (bytes)
system.tol2bus.snoops                            4858                       # Total snoops (count)
system.tol2bus.snoopTraffic                         0                       # Total snoop traffic (bytes)
system.tol2bus.snoop_fanout::samples             9758                       # Request fanout histogram
system.tol2bus.snoop_fanout::mean            0.009018                       # Request fanout histogram
system.tol2bus.snoop_fanout::stdev           0.094540                       # Request fanout histogram
system.tol2bus.snoop_fanout::underflows             0      0.00%      0.00% # Request fanout histogram
system.tol2bus.snoop_fanout::0                   9670     99.10%     99.10% # Request fanout histogram
system.tol2bus.snoop_fanout::1                     88      0.90%    100.00% # Request fanout histogram
system.tol2bus.snoop_fanout::2                      0      0.00%    100.00% # Request fanout histogram
system.tol2bus.snoop_fanout::3                      0      0.00%    100.00% # Request fanout histogram
system.tol2bus.snoop_fanout::4                      0      0.00%    100.00% # Request fanout histogram
system.tol2bus.snoop_fanout::5                      0      0.00%    100.00% # Request fanout histogram
system.tol2bus.snoop_fanout::6                      0      0.00%    100.00% # Request fanout histogram
system.tol2bus.snoop_fanout::7                      0      0.00%    100.00% # Request fanout histogram
system.tol2bus.snoop_fanout::8                      0      0.00%    100.00% # Request fanout histogram
system.tol2bus.snoop_fanout::overflows              0      0.00%    100.00% # Request fanout histogram
system.tol2bus.snoop_fanout::min_value              0                       # Request fanout histogram
system.tol2bus.snoop_fanout::max_value              1                       # Request fanout histogram
system.tol2bus.snoop_fanout::total               9758                       # Request fanout histogram
system.tol2bus.reqLayer0.occupancy            5787500                       # Layer occupancy (ticks)
system.tol2bus.reqLayer0.utilization              1.7                       # Layer utilization (%)
system.tol2bus.respLayer5.occupancy           2952995                       # Layer occupancy (ticks)
system.tol2bus.respLayer5.utilization             0.9                       # Layer utilization (%)
system.tol2bus.respLayer4.occupancy            618499                       # Layer occupancy (ticks)
system.tol2bus.respLayer4.utilization             0.2                       # Layer utilization (%)
system.tol2bus.respLayer1.occupancy           3164495                       # Layer occupancy (ticks)
system.tol2bus.respLayer1.utilization             0.9                       # Layer utilization (%)
system.tol2bus.respLayer0.occupancy            619999                       # Layer occupancy (ticks)
system.tol2bus.respLayer0.utilization             0.2                       # Layer utilization (%)

---------- End Simulation Statistics   ----------
