
---------- Begin Simulation Statistics ----------
final_tick                                  782394500                       # Number of ticks from beginning of simulation (restored from checkpoints and never reset)
host_inst_rate                                 222512                       # Simulator instruction rate (inst/s)
host_mem_usage                                 697236                       # Number of bytes of host memory used
host_op_rate                                   245238                       # Simulator op (including micro ops) rate (op/s)
host_seconds                                     8.99                       # Real time elapsed on the host
host_tick_rate                               87056772                       # Simulator tick rate (ticks/s)
sim_freq                                 1000000000000                       # Frequency of simulated ticks
sim_insts                                     1999706                       # Number of instructions simulated
sim_ops                                       2203975                       # Number of ops (including micro ops) simulated
sim_seconds                                  0.000782                       # Number of seconds simulated
sim_ticks                                   782394500                       # Number of ticks simulated
system.cpu0.branchPred.BTBCorrect                   0                       # Number of correct BTB predictions (this stat may not work properly.
system.cpu0.branchPred.BTBHitPct            88.204360                       # BTB Hit Percentage
system.cpu0.branchPred.BTBHits                  85373                       # Number of BTB hits
system.cpu0.branchPred.BTBLookups               96790                       # Number of BTB lookups
system.cpu0.branchPred.RASInCorrect               593                       # Number of incorrect RAS predictions.
system.cpu0.branchPred.condIncorrect             2415                       # Number of conditional branches incorrect
system.cpu0.branchPred.condPredicted           164473                       # Number of conditional branches predicted
system.cpu0.branchPred.indirectHits              2902                       # Number of indirect target hits.
system.cpu0.branchPred.indirectLookups           4175                       # Number of indirect predictor lookups.
system.cpu0.branchPred.indirectMisses            1273                       # Number of indirect misses.
system.cpu0.branchPred.lookups                 211124                       # Number of BP lookups
system.cpu0.branchPred.usedRAS                  13618                       # Number of times the RAS was used to get a target.
system.cpu0.branchPredindirectMispredicted           89                       # Number of mispredicted indirect branches.
system.cpu0.committedInsts                    1000000                       # Number of instructions committed
system.cpu0.committedOps                      1102176                       # Number of ops (including micro ops) committed
system.cpu0.cpi                              1.564789                       # CPI: cycles per instruction
system.cpu0.discardedOps                        13600                       # Number of ops (including micro ops) which were discarded before commit
system.cpu0.dtb.accesses                            0                       # DTB accesses
system.cpu0.dtb.align_faults                        0                       # Number of TLB faults due to alignment restrictions
system.cpu0.dtb.domain_faults                       0                       # Number of TLB faults due to domain restrictions
system.cpu0.dtb.flush_entries                       0                       # Number of entries that have been flushed from TLB
system.cpu0.dtb.flush_tlb                           0                       # Number of times complete TLB was flushed
system.cpu0.dtb.flush_tlb_asid                      0                       # Number of times TLB was flushed by ASID
system.cpu0.dtb.flush_tlb_mva                       0                       # Number of times TLB was flushed by MVA
system.cpu0.dtb.flush_tlb_mva_asid                  0                       # Number of times TLB was flushed by MVA & ASID
system.cpu0.dtb.hits                                0                       # DTB hits
system.cpu0.dtb.inst_accesses                       0                       # ITB inst accesses
system.cpu0.dtb.inst_hits                           0                       # ITB inst hits
system.cpu0.dtb.inst_misses                         0                       # ITB inst misses
system.cpu0.dtb.misses                              0                       # DTB misses
system.cpu0.dtb.perms_faults                        0                       # Number of TLB faults due to permissions restrictions
system.cpu0.dtb.prefetch_faults                     0                       # Number of TLB faults due to prefetch
system.cpu0.dtb.read_accesses                       0                       # DTB read accesses
system.cpu0.dtb.read_hits                           0                       # DTB read hits
system.cpu0.dtb.read_misses                         0                       # DTB read misses
system.cpu0.dtb.stage2_mmu.stage2_tlb.accesses            0                       # DTB accesses
system.cpu0.dtb.stage2_mmu.stage2_tlb.align_faults            0                       # Number of TLB faults due to alignment restrictions
system.cpu0.dtb.stage2_mmu.stage2_tlb.domain_faults            0                       # Number of TLB faults due to domain restrictions
system.cpu0.dtb.stage2_mmu.stage2_tlb.flush_entries            0                       # Number of entries that have been flushed from TLB
system.cpu0.dtb.stage2_mmu.stage2_tlb.flush_tlb            0                       # Number of times complete TLB was flushed
system.cpu0.dtb.stage2_mmu.stage2_tlb.flush_tlb_asid            0                       # Number of times TLB was flushed by ASID
system.cpu0.dtb.stage2_mmu.stage2_tlb.flush_tlb_mva            0                       # Number of times TLB was flushed by MVA
system.cpu0.dtb.stage2_mmu.stage2_tlb.flush_tlb_mva_asid            0                       # Number of times TLB was flushed by MVA & ASID
system.cpu0.dtb.stage2_mmu.stage2_tlb.hits            0                       # DTB hits
system.cpu0.dtb.stage2_mmu.stage2_tlb.inst_accesses            0                       # ITB inst accesses
system.cpu0.dtb.stage2_mmu.stage2_tlb.inst_hits            0                       # ITB inst hits
system.cpu0.dtb.stage2_mmu.stage2_tlb.inst_misses            0                       # ITB inst misses
system.cpu0.dtb.stage2_mmu.stage2_tlb.misses            0                       # DTB misses
system.cpu0.dtb.stage2_mmu.stage2_tlb.perms_faults            0                       # Number of TLB faults due to permissions restrictions
system.cpu0.dtb.stage2_mmu.stage2_tlb.prefetch_faults            0                       # Number of TLB faults due to prefetch
system.cpu0.dtb.stage2_mmu.stage2_tlb.read_accesses            0                       # DTB read accesses
system.cpu0.dtb.stage2_mmu.stage2_tlb.read_hits            0                       # DTB read hits
system.cpu0.dtb.stage2_mmu.stage2_tlb.read_misses            0                       # DTB read misses
system.cpu0.dtb.stage2_mmu.stage2_tlb.walker.walkRequestOrigin_Requested::Data            0                       # Table walker requests started/completed, data/inst
system.cpu0.dtb.stage2_mmu.stage2_tlb.walker.walkRequestOrigin_Requested::Inst            0                       # Table walker requests started/completed, data/inst
system.cpu0.dtb.stage2_mmu.stage2_tlb.walker.walkRequestOrigin_Requested::total            0                       # Table walker requests started/completed, data/inst
system.cpu0.dtb.stage2_mmu.stage2_tlb.walker.walkRequestOrigin_Completed::Data            0                       # Table walker requests started/completed, data/inst
system.cpu0.dtb.stage2_mmu.stage2_tlb.walker.walkRequestOrigin_Completed::Inst            0                       # Table walker requests started/completed, data/inst
system.cpu0.dtb.stage2_mmu.stage2_tlb.walker.walkRequestOrigin_Completed::total            0                       # Table walker requests started/completed, data/inst
system.cpu0.dtb.stage2_mmu.stage2_tlb.walker.walkRequestOrigin::total            0                       # Table walker requests started/completed, data/inst
system.cpu0.dtb.stage2_mmu.stage2_tlb.walker.walks            0                       # Table walker walks requested
system.cpu0.dtb.stage2_mmu.stage2_tlb.write_accesses            0                       # DTB write accesses
system.cpu0.dtb.stage2_mmu.stage2_tlb.write_hits            0                       # DTB write hits
system.cpu0.dtb.stage2_mmu.stage2_tlb.write_misses            0                       # DTB write misses
system.cpu0.dtb.walker.walkRequestOrigin_Requested::Data            0                       # Table walker requests started/completed, data/inst
system.cpu0.dtb.walker.walkRequestOrigin_Requested::Inst            0                       # Table walker requests started/completed, data/inst
system.cpu0.dtb.walker.walkRequestOrigin_Requested::total            0                       # Table walker requests started/completed, data/inst
system.cpu0.dtb.walker.walkRequestOrigin_Completed::Data            0                       # Table walker requests started/completed, data/inst
system.cpu0.dtb.walker.walkRequestOrigin_Completed::Inst            0                       # Table walker requests started/completed, data/inst
system.cpu0.dtb.walker.walkRequestOrigin_Completed::total            0                       # Table walker requests started/completed, data/inst
system.cpu0.dtb.walker.walkRequestOrigin::total            0                       # Table walker requests started/completed, data/inst
system.cpu0.dtb.walker.walks                        0                       # Table walker walks requested
system.cpu0.dtb.write_accesses                      0                       # DTB write accesses
system.cpu0.dtb.write_hits                          0                       # DTB write hits
system.cpu0.dtb.write_misses                        0                       # DTB write misses
system.cpu0.fetch2.amo_instructions                 0                       # Number of memory atomic instructions successfully decoded
system.cpu0.fetch2.fp_instructions                  0                       # Number of floating point instructions successfully decoded
system.cpu0.fetch2.int_instructions            480718                       # Number of integer instructions successfully decoded
system.cpu0.fetch2.load_instructions           185270                       # Number of memory load instructions successfully decoded
system.cpu0.fetch2.store_instructions          126725                       # Number of memory store instructions successfully decoded
system.cpu0.fetch2.vec_instructions                 0                       # Number of SIMD instructions successfully decoded
system.cpu0.idleCycles                         392783                       # Total number of cycles that the object has spent stopped
system.cpu0.ipc                              0.639064                       # IPC: instructions per cycle
system.cpu0.itb.accesses                            0                       # DTB accesses
system.cpu0.itb.align_faults                        0                       # Number of TLB faults due to alignment restrictions
system.cpu0.itb.domain_faults                       0                       # Number of TLB faults due to domain restrictions
system.cpu0.itb.flush_entries                       0                       # Number of entries that have been flushed from TLB
system.cpu0.itb.flush_tlb                           0                       # Number of times complete TLB was flushed
system.cpu0.itb.flush_tlb_asid                      0                       # Number of times TLB was flushed by ASID
system.cpu0.itb.flush_tlb_mva                       0                       # Number of times TLB was flushed by MVA
system.cpu0.itb.flush_tlb_mva_asid                  0                       # Number of times TLB was flushed by MVA & ASID
system.cpu0.itb.hits                                0                       # DTB hits
system.cpu0.itb.inst_accesses                       0                       # ITB inst accesses
system.cpu0.itb.inst_hits                           0                       # ITB inst hits
system.cpu0.itb.inst_misses                         0                       # ITB inst misses
system.cpu0.itb.misses                              0                       # DTB misses
system.cpu0.itb.perms_faults                        0                       # Number of TLB faults due to permissions restrictions
system.cpu0.itb.prefetch_faults                     0                       # Number of TLB faults due to prefetch
system.cpu0.itb.read_accesses                       0                       # DTB read accesses
system.cpu0.itb.read_hits                           0                       # DTB read hits
system.cpu0.itb.read_misses                         0                       # DTB read misses
system.cpu0.itb.stage2_mmu.stage2_tlb.accesses            0                       # DTB accesses
system.cpu0.itb.stage2_mmu.stage2_tlb.align_faults            0                       # Number of TLB faults due to alignment restrictions
system.cpu0.itb.stage2_mmu.stage2_tlb.domain_faults            0                       # Number of TLB faults due to domain restrictions
system.cpu0.itb.stage2_mmu.stage2_tlb.flush_entries            0                       # Number of entries that have been flushed from TLB
system.cpu0.itb.stage2_mmu.stage2_tlb.flush_tlb            0                       # Number of times complete TLB was flushed
system.cpu0.itb.stage2_mmu.stage2_tlb.flush_tlb_asid            0                       # Number of times TLB was flushed by ASID
system.cpu0.itb.stage2_mmu.stage2_tlb.flush_tlb_mva            0                       # Number of times TLB was flushed by MVA
system.cpu0.itb.stage2_mmu.stage2_tlb.flush_tlb_mva_asid            0                       # Number of times TLB was flushed by MVA & ASID
system.cpu0.itb.stage2_mmu.stage2_tlb.hits            0                       # DTB hits
system.cpu0.itb.stage2_mmu.stage2_tlb.inst_accesses            0                       # ITB inst accesses
system.cpu0.itb.stage2_mmu.stage2_tlb.inst_hits            0                       # ITB inst hits
system.cpu0.itb.stage2_mmu.stage2_tlb.inst_misses            0                       # ITB inst misses
system.cpu0.itb.stage2_mmu.stage2_tlb.misses            0                       # DTB misses
system.cpu0.itb.stage2_mmu.stage2_tlb.perms_faults            0                       # Number of TLB faults due to permissions restrictions
system.cpu0.itb.stage2_mmu.stage2_tlb.prefetch_faults            0                       # Number of TLB faults due to prefetch
system.cpu0.itb.stage2_mmu.stage2_tlb.read_accesses            0                       # DTB read accesses
system.cpu0.itb.stage2_mmu.stage2_tlb.read_hits            0                       # DTB read hits
system.cpu0.itb.stage2_mmu.stage2_tlb.read_misses            0                       # DTB read misses
system.cpu0.itb.stage2_mmu.stage2_tlb.walker.walkRequestOrigin_Requested::Data            0                       # Table walker requests started/completed, data/inst
system.cpu0.itb.stage2_mmu.stage2_tlb.walker.walkRequestOrigin_Requested::Inst            0                       # Table walker requests started/completed, data/inst
system.cpu0.itb.stage2_mmu.stage2_tlb.walker.walkRequestOrigin_Requested::total            0                       # Table walker requests started/completed, data/inst
system.cpu0.itb.stage2_mmu.stage2_tlb.walker.walkRequestOrigin_Completed::Data            0                       # Table walker requests started/completed, data/inst
system.cpu0.itb.stage2_mmu.stage2_tlb.walker.walkRequestOrigin_Completed::Inst            0                       # Table walker requests started/completed, data/inst
system.cpu0.itb.stage2_mmu.stage2_tlb.walker.walkRequestOrigin_Completed::total            0                       # Table walker requests started/completed, data/inst
system.cpu0.itb.stage2_mmu.stage2_tlb.walker.walkRequestOrigin::total            0                       # Table walker requests started/completed, data/inst
system.cpu0.itb.stage2_mmu.stage2_tlb.walker.walks            0                       # Table walker walks requested
system.cpu0.itb.stage2_mmu.stage2_tlb.write_accesses            0                       # DTB write accesses
system.cpu0.itb.stage2_mmu.stage2_tlb.write_hits            0                       # DTB write hits
system.cpu0.itb.stage2_mmu.stage2_tlb.write_misses            0                       # DTB write misses
system.cpu0.itb.walker.walkRequestOrigin_Requested::Data            0                       # Table walker requests started/completed, data/inst
system.cpu0.itb.walker.walkRequestOrigin_Requested::Inst            0                       # Table walker requests started/completed, data/inst
system.cpu0.itb.walker.walkRequestOrigin_Requested::total            0                       # Table walker requests started/completed, data/inst
system.cpu0.itb.walker.walkRequestOrigin_Completed::Data            0                       # Table walker requests started/completed, data/inst
system.cpu0.itb.walker.walkRequestOrigin_Completed::Inst            0                       # Table walker requests started/completed, data/inst
system.cpu0.itb.walker.walkRequestOrigin_Completed::total            0                       # Table walker requests started/completed, data/inst
system.cpu0.itb.walker.walkRequestOrigin::total            0                       # Table walker requests started/completed, data/inst
system.cpu0.itb.walker.walks                        0                       # Table walker walks requested
system.cpu0.itb.write_accesses                      0                       # DTB write accesses
system.cpu0.itb.write_hits                          0                       # DTB write hits
system.cpu0.itb.write_misses                        0                       # DTB write misses
system.cpu0.numCycles                         1564789                       # number of cpu cycles simulated
system.cpu0.numFetchSuspends                        0                       # Number of times Execute suspended instruction fetching
system.cpu0.numWorkItemsCompleted                   0                       # number of work items this cpu completed
system.cpu0.numWorkItemsStarted                     0                       # number of work items this cpu started
system.cpu0.op_class_0::No_OpClass                  0      0.00%      0.00% # Class of committed instruction
system.cpu0.op_class_0::IntAlu                 703969     63.87%     63.87% # Class of committed instruction
system.cpu0.op_class_0::IntMult                  3467      0.31%     64.19% # Class of committed instruction
system.cpu0.op_class_0::IntDiv                      0      0.00%     64.19% # Class of committed instruction
system.cpu0.op_class_0::FloatAdd                    0      0.00%     64.19% # Class of committed instruction
system.cpu0.op_class_0::FloatCmp                    0      0.00%     64.19% # Class of committed instruction
system.cpu0.op_class_0::FloatCvt                    0      0.00%     64.19% # Class of committed instruction
system.cpu0.op_class_0::FloatMult                   0      0.00%     64.19% # Class of committed instruction
system.cpu0.op_class_0::FloatMultAcc                0      0.00%     64.19% # Class of committed instruction
system.cpu0.op_class_0::FloatDiv                    0      0.00%     64.19% # Class of committed instruction
system.cpu0.op_class_0::FloatMisc                   0      0.00%     64.19% # Class of committed instruction
system.cpu0.op_class_0::FloatSqrt                   0      0.00%     64.19% # Class of committed instruction
system.cpu0.op_class_0::SimdAdd                     0      0.00%     64.19% # Class of committed instruction
system.cpu0.op_class_0::SimdAddAcc                  0      0.00%     64.19% # Class of committed instruction
system.cpu0.op_class_0::SimdAlu                     0      0.00%     64.19% # Class of committed instruction
system.cpu0.op_class_0::SimdCmp                     0      0.00%     64.19% # Class of committed instruction
system.cpu0.op_class_0::SimdCvt                     0      0.00%     64.19% # Class of committed instruction
system.cpu0.op_class_0::SimdMisc                    0      0.00%     64.19% # Class of committed instruction
system.cpu0.op_class_0::SimdMult                    0      0.00%     64.19% # Class of committed instruction
system.cpu0.op_class_0::SimdMultAcc                 0      0.00%     64.19% # Class of committed instruction
system.cpu0.op_class_0::SimdShift                   0      0.00%     64.19% # Class of committed instruction
system.cpu0.op_class_0::SimdShiftAcc                0      0.00%     64.19% # Class of committed instruction
system.cpu0.op_class_0::SimdDiv                     0      0.00%     64.19% # Class of committed instruction
system.cpu0.op_class_0::SimdSqrt                    0      0.00%     64.19% # Class of committed instruction
system.cpu0.op_class_0::SimdFloatAdd                0      0.00%     64.19% # Class of committed instruction
system.cpu0.op_class_0::SimdFloatAlu                0      0.00%     64.19% # Class of committed instruction
system.cpu0.op_class_0::SimdFloatCmp                0      0.00%     64.19% # Class of committed instruction
system.cpu0.op_class_0::SimdFloatCvt                0      0.00%     64.19% # Class of committed instruction
system.cpu0.op_class_0::SimdFloatDiv                0      0.00%     64.19% # Class of committed instruction
system.cpu0.op_class_0::SimdFloatMisc               0      0.00%     64.19% # Class of committed instruction
system.cpu0.op_class_0::SimdFloatMult               0      0.00%     64.19% # Class of committed instruction
system.cpu0.op_class_0::SimdFloatMultAcc            0      0.00%     64.19% # Class of committed instruction
system.cpu0.op_class_0::SimdFloatSqrt               0      0.00%     64.19% # Class of committed instruction
system.cpu0.op_class_0::SimdReduceAdd               0      0.00%     64.19% # Class of committed instruction
system.cpu0.op_class_0::SimdReduceAlu               0      0.00%     64.19% # Class of committed instruction
system.cpu0.op_class_0::SimdReduceCmp               0      0.00%     64.19% # Class of committed instruction
system.cpu0.op_class_0::SimdFloatReduceAdd            0      0.00%     64.19% # Class of committed instruction
system.cpu0.op_class_0::SimdFloatReduceCmp            0      0.00%     64.19% # Class of committed instruction
system.cpu0.op_class_0::SimdAes                     0      0.00%     64.19% # Class of committed instruction
system.cpu0.op_class_0::SimdAesMix                  0      0.00%     64.19% # Class of committed instruction
system.cpu0.op_class_0::SimdSha1Hash                0      0.00%     64.19% # Class of committed instruction
system.cpu0.op_class_0::SimdSha1Hash2               0      0.00%     64.19% # Class of committed instruction
system.cpu0.op_class_0::SimdSha256Hash              0      0.00%     64.19% # Class of committed instruction
system.cpu0.op_class_0::SimdSha256Hash2             0      0.00%     64.19% # Class of committed instruction
system.cpu0.op_class_0::SimdShaSigma2               0      0.00%     64.19% # Class of committed instruction
system.cpu0.op_class_0::SimdShaSigma3               0      0.00%     64.19% # Class of committed instruction
system.cpu0.op_class_0::SimdPredAlu                 0      0.00%     64.19% # Class of committed instruction
system.cpu0.op_class_0::MemRead                216941     19.68%     83.87% # Class of committed instruction
system.cpu0.op_class_0::MemWrite               177799     16.13%    100.00% # Class of committed instruction
system.cpu0.op_class_0::FloatMemRead                0      0.00%    100.00% # Class of committed instruction
system.cpu0.op_class_0::FloatMemWrite               0      0.00%    100.00% # Class of committed instruction
system.cpu0.op_class_0::IprAccess                   0      0.00%    100.00% # Class of committed instruction
system.cpu0.op_class_0::InstPrefetch                0      0.00%    100.00% # Class of committed instruction
system.cpu0.op_class_0::total                 1102176                       # Class of committed instruction
system.cpu0.tickCycles                        1172006                       # Number of cycles that the object actually ticked
system.cpu0.workload.numSyscalls                   23                       # Number of system calls
system.cpu1.branchPred.BTBCorrect                   0                       # Number of correct BTB predictions (this stat may not work properly.
system.cpu1.branchPred.BTBHitPct            88.205929                       # BTB Hit Percentage
system.cpu1.branchPred.BTBHits                  85341                       # Number of BTB hits
system.cpu1.branchPred.BTBLookups               96752                       # Number of BTB lookups
system.cpu1.branchPred.RASInCorrect               592                       # Number of incorrect RAS predictions.
system.cpu1.branchPred.condIncorrect             2413                       # Number of conditional branches incorrect
system.cpu1.branchPred.condPredicted           164438                       # Number of conditional branches predicted
system.cpu1.branchPred.indirectHits              2901                       # Number of indirect target hits.
system.cpu1.branchPred.indirectLookups           4172                       # Number of indirect predictor lookups.
system.cpu1.branchPred.indirectMisses            1271                       # Number of indirect misses.
system.cpu1.branchPred.lookups                 211063                       # Number of BP lookups
system.cpu1.branchPred.usedRAS                  13606                       # Number of times the RAS was used to get a target.
system.cpu1.branchPredindirectMispredicted           89                       # Number of mispredicted indirect branches.
system.cpu1.committedInsts                     999706                       # Number of instructions committed
system.cpu1.committedOps                      1101799                       # Number of ops (including micro ops) committed
system.cpu1.cpi                              1.565249                       # CPI: cycles per instruction
system.cpu1.discardedOps                        13583                       # Number of ops (including micro ops) which were discarded before commit
system.cpu1.dtb.accesses                            0                       # DTB accesses
system.cpu1.dtb.align_faults                        0                       # Number of TLB faults due to alignment restrictions
system.cpu1.dtb.domain_faults                       0                       # Number of TLB faults due to domain restrictions
system.cpu1.dtb.flush_entries                       0                       # Number of entries that have been flushed from TLB
system.cpu1.dtb.flush_tlb                           0                       # Number of times complete TLB was flushed
system.cpu1.dtb.flush_tlb_asid                      0                       # Number of times TLB was flushed by ASID
system.cpu1.dtb.flush_tlb_mva                       0                       # Number of times TLB was flushed by MVA
system.cpu1.dtb.flush_tlb_mva_asid                  0                       # Number of times TLB was flushed by MVA & ASID
system.cpu1.dtb.hits                                0                       # DTB hits
system.cpu1.dtb.inst_accesses                       0                       # ITB inst accesses
system.cpu1.dtb.inst_hits                           0                       # ITB inst hits
system.cpu1.dtb.inst_misses                         0                       # ITB inst misses
system.cpu1.dtb.misses                              0                       # DTB misses
system.cpu1.dtb.perms_faults                        0                       # Number of TLB faults due to permissions restrictions
system.cpu1.dtb.prefetch_faults                     0                       # Number of TLB faults due to prefetch
system.cpu1.dtb.read_accesses                       0                       # DTB read accesses
system.cpu1.dtb.read_hits                           0                       # DTB read hits
system.cpu1.dtb.read_misses                         0                       # DTB read misses
system.cpu1.dtb.stage2_mmu.stage2_tlb.accesses            0                       # DTB accesses
system.cpu1.dtb.stage2_mmu.stage2_tlb.align_faults            0                       # Number of TLB faults due to alignment restrictions
system.cpu1.dtb.stage2_mmu.stage2_tlb.domain_faults            0                       # Number of TLB faults due to domain restrictions
system.cpu1.dtb.stage2_mmu.stage2_tlb.flush_entries            0                       # Number of entries that have been flushed from TLB
system.cpu1.dtb.stage2_mmu.stage2_tlb.flush_tlb            0                       # Number of times complete TLB was flushed
system.cpu1.dtb.stage2_mmu.stage2_tlb.flush_tlb_asid            0                       # Number of times TLB was flushed by ASID
system.cpu1.dtb.stage2_mmu.stage2_tlb.flush_tlb_mva            0                       # Number of times TLB was flushed by MVA
system.cpu1.dtb.stage2_mmu.stage2_tlb.flush_tlb_mva_asid            0                       # Number of times TLB was flushed by MVA & ASID
system.cpu1.dtb.stage2_mmu.stage2_tlb.hits            0                       # DTB hits
system.cpu1.dtb.stage2_mmu.stage2_tlb.inst_accesses            0                       # ITB inst accesses
system.cpu1.dtb.stage2_mmu.stage2_tlb.inst_hits            0                       # ITB inst hits
system.cpu1.dtb.stage2_mmu.stage2_tlb.inst_misses            0                       # ITB inst misses
system.cpu1.dtb.stage2_mmu.stage2_tlb.misses            0                       # DTB misses
system.cpu1.dtb.stage2_mmu.stage2_tlb.perms_faults            0                       # Number of TLB faults due to permissions restrictions
system.cpu1.dtb.stage2_mmu.stage2_tlb.prefetch_faults            0                       # Number of TLB faults due to prefetch
system.cpu1.dtb.stage2_mmu.stage2_tlb.read_accesses            0                       # DTB read accesses
system.cpu1.dtb.stage2_mmu.stage2_tlb.read_hits            0                       # DTB read hits
system.cpu1.dtb.stage2_mmu.stage2_tlb.read_misses            0                       # DTB read misses
system.cpu1.dtb.stage2_mmu.stage2_tlb.walker.walkRequestOrigin_Requested::Data            0                       # Table walker requests started/completed, data/inst
system.cpu1.dtb.stage2_mmu.stage2_tlb.walker.walkRequestOrigin_Requested::Inst            0                       # Table walker requests started/completed, data/inst
system.cpu1.dtb.stage2_mmu.stage2_tlb.walker.walkRequestOrigin_Requested::total            0                       # Table walker requests started/completed, data/inst
system.cpu1.dtb.stage2_mmu.stage2_tlb.walker.walkRequestOrigin_Completed::Data            0                       # Table walker requests started/completed, data/inst
system.cpu1.dtb.stage2_mmu.stage2_tlb.walker.walkRequestOrigin_Completed::Inst            0                       # Table walker requests started/completed, data/inst
system.cpu1.dtb.stage2_mmu.stage2_tlb.walker.walkRequestOrigin_Completed::total            0                       # Table walker requests started/completed, data/inst
system.cpu1.dtb.stage2_mmu.stage2_tlb.walker.walkRequestOrigin::total            0                       # Table walker requests started/completed, data/inst
system.cpu1.dtb.stage2_mmu.stage2_tlb.walker.walks            0                       # Table walker walks requested
system.cpu1.dtb.stage2_mmu.stage2_tlb.write_accesses            0                       # DTB write accesses
system.cpu1.dtb.stage2_mmu.stage2_tlb.write_hits            0                       # DTB write hits
system.cpu1.dtb.stage2_mmu.stage2_tlb.write_misses            0                       # DTB write misses
system.cpu1.dtb.walker.walkRequestOrigin_Requested::Data            0                       # Table walker requests started/completed, data/inst
system.cpu1.dtb.walker.walkRequestOrigin_Requested::Inst            0                       # Table walker requests started/completed, data/inst
system.cpu1.dtb.walker.walkRequestOrigin_Requested::total            0                       # Table walker requests started/completed, data/inst
system.cpu1.dtb.walker.walkRequestOrigin_Completed::Data            0                       # Table walker requests started/completed, data/inst
system.cpu1.dtb.walker.walkRequestOrigin_Completed::Inst            0                       # Table walker requests started/completed, data/inst
system.cpu1.dtb.walker.walkRequestOrigin_Completed::total            0                       # Table walker requests started/completed, data/inst
system.cpu1.dtb.walker.walkRequestOrigin::total            0                       # Table walker requests started/completed, data/inst
system.cpu1.dtb.walker.walks                        0                       # Table walker walks requested
system.cpu1.dtb.write_accesses                      0                       # DTB write accesses
system.cpu1.dtb.write_hits                          0                       # DTB write hits
system.cpu1.dtb.write_misses                        0                       # DTB write misses
system.cpu1.fetch2.amo_instructions                 0                       # Number of memory atomic instructions successfully decoded
system.cpu1.fetch2.fp_instructions                  0                       # Number of floating point instructions successfully decoded
system.cpu1.fetch2.int_instructions            480527                       # Number of integer instructions successfully decoded
system.cpu1.fetch2.load_instructions           185245                       # Number of memory load instructions successfully decoded
system.cpu1.fetch2.store_instructions          126675                       # Number of memory store instructions successfully decoded
system.cpu1.fetch2.vec_instructions                 0                       # Number of SIMD instructions successfully decoded
system.cpu1.idleCycles                         393908                       # Total number of cycles that the object has spent stopped
system.cpu1.ipc                              0.638876                       # IPC: instructions per cycle
system.cpu1.itb.accesses                            0                       # DTB accesses
system.cpu1.itb.align_faults                        0                       # Number of TLB faults due to alignment restrictions
system.cpu1.itb.domain_faults                       0                       # Number of TLB faults due to domain restrictions
system.cpu1.itb.flush_entries                       0                       # Number of entries that have been flushed from TLB
system.cpu1.itb.flush_tlb                           0                       # Number of times complete TLB was flushed
system.cpu1.itb.flush_tlb_asid                      0                       # Number of times TLB was flushed by ASID
system.cpu1.itb.flush_tlb_mva                       0                       # Number of times TLB was flushed by MVA
system.cpu1.itb.flush_tlb_mva_asid                  0                       # Number of times TLB was flushed by MVA & ASID
system.cpu1.itb.hits                                0                       # DTB hits
system.cpu1.itb.inst_accesses                       0                       # ITB inst accesses
system.cpu1.itb.inst_hits                           0                       # ITB inst hits
system.cpu1.itb.inst_misses                         0                       # ITB inst misses
system.cpu1.itb.misses                              0                       # DTB misses
system.cpu1.itb.perms_faults                        0                       # Number of TLB faults due to permissions restrictions
system.cpu1.itb.prefetch_faults                     0                       # Number of TLB faults due to prefetch
system.cpu1.itb.read_accesses                       0                       # DTB read accesses
system.cpu1.itb.read_hits                           0                       # DTB read hits
system.cpu1.itb.read_misses                         0                       # DTB read misses
system.cpu1.itb.stage2_mmu.stage2_tlb.accesses            0                       # DTB accesses
system.cpu1.itb.stage2_mmu.stage2_tlb.align_faults            0                       # Number of TLB faults due to alignment restrictions
system.cpu1.itb.stage2_mmu.stage2_tlb.domain_faults            0                       # Number of TLB faults due to domain restrictions
system.cpu1.itb.stage2_mmu.stage2_tlb.flush_entries            0                       # Number of entries that have been flushed from TLB
system.cpu1.itb.stage2_mmu.stage2_tlb.flush_tlb            0                       # Number of times complete TLB was flushed
system.cpu1.itb.stage2_mmu.stage2_tlb.flush_tlb_asid            0                       # Number of times TLB was flushed by ASID
system.cpu1.itb.stage2_mmu.stage2_tlb.flush_tlb_mva            0                       # Number of times TLB was flushed by MVA
system.cpu1.itb.stage2_mmu.stage2_tlb.flush_tlb_mva_asid            0                       # Number of times TLB was flushed by MVA & ASID
system.cpu1.itb.stage2_mmu.stage2_tlb.hits            0                       # DTB hits
system.cpu1.itb.stage2_mmu.stage2_tlb.inst_accesses            0                       # ITB inst accesses
system.cpu1.itb.stage2_mmu.stage2_tlb.inst_hits            0                       # ITB inst hits
system.cpu1.itb.stage2_mmu.stage2_tlb.inst_misses            0                       # ITB inst misses
system.cpu1.itb.stage2_mmu.stage2_tlb.misses            0                       # DTB misses
system.cpu1.itb.stage2_mmu.stage2_tlb.perms_faults            0                       # Number of TLB faults due to permissions restrictions
system.cpu1.itb.stage2_mmu.stage2_tlb.prefetch_faults            0                       # Number of TLB faults due to prefetch
system.cpu1.itb.stage2_mmu.stage2_tlb.read_accesses            0                       # DTB read accesses
system.cpu1.itb.stage2_mmu.stage2_tlb.read_hits            0                       # DTB read hits
system.cpu1.itb.stage2_mmu.stage2_tlb.read_misses            0                       # DTB read misses
system.cpu1.itb.stage2_mmu.stage2_tlb.walker.walkRequestOrigin_Requested::Data            0                       # Table walker requests started/completed, data/inst
system.cpu1.itb.stage2_mmu.stage2_tlb.walker.walkRequestOrigin_Requested::Inst            0                       # Table walker requests started/completed, data/inst
system.cpu1.itb.stage2_mmu.stage2_tlb.walker.walkRequestOrigin_Requested::total            0                       # Table walker requests started/completed, data/inst
system.cpu1.itb.stage2_mmu.stage2_tlb.walker.walkRequestOrigin_Completed::Data            0                       # Table walker requests started/completed, data/inst
system.cpu1.itb.stage2_mmu.stage2_tlb.walker.walkRequestOrigin_Completed::Inst            0                       # Table walker requests started/completed, data/inst
system.cpu1.itb.stage2_mmu.stage2_tlb.walker.walkRequestOrigin_Completed::total            0                       # Table walker requests started/completed, data/inst
system.cpu1.itb.stage2_mmu.stage2_tlb.walker.walkRequestOrigin::total            0                       # Table walker requests started/completed, data/inst
system.cpu1.itb.stage2_mmu.stage2_tlb.walker.walks            0                       # Table walker walks requested
system.cpu1.itb.stage2_mmu.stage2_tlb.write_accesses            0                       # DTB write accesses
system.cpu1.itb.stage2_mmu.stage2_tlb.write_hits            0                       # DTB write hits
system.cpu1.itb.stage2_mmu.stage2_tlb.write_misses            0                       # DTB write misses
system.cpu1.itb.walker.walkRequestOrigin_Requested::Data            0                       # Table walker requests started/completed, data/inst
system.cpu1.itb.walker.walkRequestOrigin_Requested::Inst            0                       # Table walker requests started/completed, data/inst
system.cpu1.itb.walker.walkRequestOrigin_Requested::total            0                       # Table walker requests started/completed, data/inst
system.cpu1.itb.walker.walkRequestOrigin_Completed::Data            0                       # Table walker requests started/completed, data/inst
system.cpu1.itb.walker.walkRequestOrigin_Completed::Inst            0                       # Table walker requests started/completed, data/inst
system.cpu1.itb.walker.walkRequestOrigin_Completed::total            0                       # Table walker requests started/completed, data/inst
system.cpu1.itb.walker.walkRequestOrigin::total            0                       # Table walker requests started/completed, data/inst
system.cpu1.itb.walker.walks                        0                       # Table walker walks requested
system.cpu1.itb.write_accesses                      0                       # DTB write accesses
system.cpu1.itb.write_hits                          0                       # DTB write hits
system.cpu1.itb.write_misses                        0                       # DTB write misses
system.cpu1.numCycles                         1564789                       # number of cpu cycles simulated
system.cpu1.numFetchSuspends                        0                       # Number of times Execute suspended instruction fetching
system.cpu1.numWorkItemsCompleted                   0                       # number of work items this cpu completed
system.cpu1.numWorkItemsStarted                     0                       # number of work items this cpu started
system.cpu1.op_class_0::No_OpClass                  0      0.00%      0.00% # Class of committed instruction
system.cpu1.op_class_0::IntAlu                 703728     63.87%     63.87% # Class of committed instruction
system.cpu1.op_class_0::IntMult                  3467      0.31%     64.19% # Class of committed instruction
system.cpu1.op_class_0::IntDiv                      0      0.00%     64.19% # Class of committed instruction
system.cpu1.op_class_0::FloatAdd                    0      0.00%     64.19% # Class of committed instruction
system.cpu1.op_class_0::FloatCmp                    0      0.00%     64.19% # Class of committed instruction
system.cpu1.op_class_0::FloatCvt                    0      0.00%     64.19% # Class of committed instruction
system.cpu1.op_class_0::FloatMult                   0      0.00%     64.19% # Class of committed instruction
system.cpu1.op_class_0::FloatMultAcc                0      0.00%     64.19% # Class of committed instruction
system.cpu1.op_class_0::FloatDiv                    0      0.00%     64.19% # Class of committed instruction
system.cpu1.op_class_0::FloatMisc                   0      0.00%     64.19% # Class of committed instruction
system.cpu1.op_class_0::FloatSqrt                   0      0.00%     64.19% # Class of committed instruction
system.cpu1.op_class_0::SimdAdd                     0      0.00%     64.19% # Class of committed instruction
system.cpu1.op_class_0::SimdAddAcc                  0      0.00%     64.19% # Class of committed instruction
system.cpu1.op_class_0::SimdAlu                     0      0.00%     64.19% # Class of committed instruction
system.cpu1.op_class_0::SimdCmp                     0      0.00%     64.19% # Class of committed instruction
system.cpu1.op_class_0::SimdCvt                     0      0.00%     64.19% # Class of committed instruction
system.cpu1.op_class_0::SimdMisc                    0      0.00%     64.19% # Class of committed instruction
system.cpu1.op_class_0::SimdMult                    0      0.00%     64.19% # Class of committed instruction
system.cpu1.op_class_0::SimdMultAcc                 0      0.00%     64.19% # Class of committed instruction
system.cpu1.op_class_0::SimdShift                   0      0.00%     64.19% # Class of committed instruction
system.cpu1.op_class_0::SimdShiftAcc                0      0.00%     64.19% # Class of committed instruction
system.cpu1.op_class_0::SimdDiv                     0      0.00%     64.19% # Class of committed instruction
system.cpu1.op_class_0::SimdSqrt                    0      0.00%     64.19% # Class of committed instruction
system.cpu1.op_class_0::SimdFloatAdd                0      0.00%     64.19% # Class of committed instruction
system.cpu1.op_class_0::SimdFloatAlu                0      0.00%     64.19% # Class of committed instruction
system.cpu1.op_class_0::SimdFloatCmp                0      0.00%     64.19% # Class of committed instruction
system.cpu1.op_class_0::SimdFloatCvt                0      0.00%     64.19% # Class of committed instruction
system.cpu1.op_class_0::SimdFloatDiv                0      0.00%     64.19% # Class of committed instruction
system.cpu1.op_class_0::SimdFloatMisc               0      0.00%     64.19% # Class of committed instruction
system.cpu1.op_class_0::SimdFloatMult               0      0.00%     64.19% # Class of committed instruction
system.cpu1.op_class_0::SimdFloatMultAcc            0      0.00%     64.19% # Class of committed instruction
system.cpu1.op_class_0::SimdFloatSqrt               0      0.00%     64.19% # Class of committed instruction
system.cpu1.op_class_0::SimdReduceAdd               0      0.00%     64.19% # Class of committed instruction
system.cpu1.op_class_0::SimdReduceAlu               0      0.00%     64.19% # Class of committed instruction
system.cpu1.op_class_0::SimdReduceCmp               0      0.00%     64.19% # Class of committed instruction
system.cpu1.op_class_0::SimdFloatReduceAdd            0      0.00%     64.19% # Class of committed instruction
system.cpu1.op_class_0::SimdFloatReduceCmp            0      0.00%     64.19% # Class of committed instruction
system.cpu1.op_class_0::SimdAes                     0      0.00%     64.19% # Class of committed instruction
system.cpu1.op_class_0::SimdAesMix                  0      0.00%     64.19% # Class of committed instruction
system.cpu1.op_class_0::SimdSha1Hash                0      0.00%     64.19% # Class of committed instruction
system.cpu1.op_class_0::SimdSha1Hash2               0      0.00%     64.19% # Class of committed instruction
system.cpu1.op_class_0::SimdSha256Hash              0      0.00%     64.19% # Class of committed instruction
system.cpu1.op_class_0::SimdSha256Hash2             0      0.00%     64.19% # Class of committed instruction
system.cpu1.op_class_0::SimdShaSigma2               0      0.00%     64.19% # Class of committed instruction
system.cpu1.op_class_0::SimdShaSigma3               0      0.00%     64.19% # Class of committed instruction
system.cpu1.op_class_0::SimdPredAlu                 0      0.00%     64.19% # Class of committed instruction
system.cpu1.op_class_0::MemRead                216888     19.68%     83.87% # Class of committed instruction
system.cpu1.op_class_0::MemWrite               177716     16.13%    100.00% # Class of committed instruction
system.cpu1.op_class_0::FloatMemRead                0      0.00%    100.00% # Class of committed instruction
system.cpu1.op_class_0::FloatMemWrite               0      0.00%    100.00% # Class of committed instruction
system.cpu1.op_class_0::IprAccess                   0      0.00%    100.00% # Class of committed instruction
system.cpu1.op_class_0::InstPrefetch                0      0.00%    100.00% # Class of committed instruction
system.cpu1.op_class_0::total                 1101799                       # Class of committed instruction
system.cpu1.tickCycles                        1170881                       # Number of cycles that the object actually ticked
system.cpu1.workload.numSyscalls                   23                       # Number of system calls
system.membus.snoop_filter.hit_multi_requests            0                       # Number of requests hitting in the snoop filter with multiple (>1) holders of the requested data.
system.membus.snoop_filter.hit_multi_snoops            0                       # Number of snoops hitting in the snoop filter with multiple (>1) holders of the requested data.
system.membus.snoop_filter.hit_single_requests           81                       # Number of requests hitting in the snoop filter with a single holder of the requested data.
system.membus.snoop_filter.hit_single_snoops            0                       # Number of snoops hitting in the snoop filter with a single holder of the requested data.
system.membus.snoop_filter.tot_requests          5175                       # Total number of requests made to the snoop filter.
system.membus.snoop_filter.tot_snoops               0                       # Total number of snoops made to the snoop filter.
system.tol2bus.snoop_filter.hit_multi_requests           52                       # Number of requests hitting in the snoop filter with multiple (>1) holders of the requested data.
system.tol2bus.snoop_filter.hit_multi_snoops            8                       # Number of snoops hitting in the snoop filter with multiple (>1) holders of the requested data.
system.tol2bus.snoop_filter.hit_single_requests         5961                       # Number of requests hitting in the snoop filter with a single holder of the requested data.
system.tol2bus.snoop_filter.hit_single_snoops          522                       # Number of snoops hitting in the snoop filter with a single holder of the requested data.
system.tol2bus.snoop_filter.tot_requests        14642                       # Total number of requests made to the snoop filter.
system.tol2bus.snoop_filter.tot_snoops            530                       # Total number of snoops made to the snoop filter.
system.membus.pwrStateResidencyTicks::UNDEFINED    782394500                       # Cumulative time (in ticks) in various power states
system.membus.trans_dist::ReadResp               1220                       # Transaction distribution
system.membus.trans_dist::WritebackDirty           63                       # Transaction distribution
system.membus.trans_dist::CleanEvict               18                       # Transaction distribution
system.membus.trans_dist::ReadExReq              3874                       # Transaction distribution
system.membus.trans_dist::ReadExResp             3874                       # Transaction distribution
system.membus.trans_dist::ReadSharedReq          1220                       # Transaction distribution
system.membus.pkt_count_system.l2.mem_side::system.mem_ctrls.port        10269                       # Packet count per connected master and slave (bytes)
system.membus.pkt_count::total                  10269                       # Packet count per connected master and slave (bytes)
system.membus.pkt_size_system.l2.mem_side::system.mem_ctrls.port       330048                       # Cumulative packet size per connected master and slave (bytes)
system.membus.pkt_size::total                  330048                       # Cumulative packet size per connected master and slave (bytes)
system.membus.snoops                                0                       # Total snoops (count)
system.membus.snoopTraffic                          0                       # Total snoop traffic (bytes)
system.membus.snoop_fanout::samples              5094                       # Request fanout histogram
system.membus.snoop_fanout::mean                    0                       # Request fanout histogram
system.membus.snoop_fanout::stdev                   0                       # Request fanout histogram
system.membus.snoop_fanout::underflows              0      0.00%      0.00% # Request fanout histogram
system.membus.snoop_fanout::0                    5094    100.00%    100.00% # Request fanout histogram
system.membus.snoop_fanout::1                       0      0.00%    100.00% # Request fanout histogram
system.membus.snoop_fanout::overflows               0      0.00%    100.00% # Request fanout histogram
system.membus.snoop_fanout::min_value               0                       # Request fanout histogram
system.membus.snoop_fanout::max_value               0                       # Request fanout histogram
system.membus.snoop_fanout::total                5094                       # Request fanout histogram
system.membus.respLayer1.occupancy           27414000                       # Layer occupancy (ticks)
system.membus.respLayer1.utilization              3.5                       # Layer utilization (%)
system.membus.reqLayer0.occupancy             6034000                       # Layer occupancy (ticks)
system.membus.reqLayer0.utilization               0.8                       # Layer utilization (%)
system.voltage_domain.voltage                       1                       # Voltage in Volts
system.clk_domain.clock                          1000                       # Clock period in ticks
system.cpu0.pwrStateResidencyTicks::ON      782394500                       # Cumulative time (in ticks) in various power states
system.cpu0.icache.pwrStateResidencyTicks::UNDEFINED    782394500                       # Cumulative time (in ticks) in various power states
system.cpu0.icache.demand_hits::.cpu0.inst       291222                       # number of demand (read+write) hits
system.cpu0.icache.demand_hits::total          291222                       # number of demand (read+write) hits
system.cpu0.icache.overall_hits::.cpu0.inst       291222                       # number of overall hits
system.cpu0.icache.overall_hits::total         291222                       # number of overall hits
system.cpu0.icache.demand_misses::.cpu0.inst         2230                       # number of demand (read+write) misses
system.cpu0.icache.demand_misses::total          2230                       # number of demand (read+write) misses
system.cpu0.icache.overall_misses::.cpu0.inst         2230                       # number of overall misses
system.cpu0.icache.overall_misses::total         2230                       # number of overall misses
system.cpu0.icache.demand_miss_latency::.cpu0.inst     59990000                       # number of demand (read+write) miss cycles
system.cpu0.icache.demand_miss_latency::total     59990000                       # number of demand (read+write) miss cycles
system.cpu0.icache.overall_miss_latency::.cpu0.inst     59990000                       # number of overall miss cycles
system.cpu0.icache.overall_miss_latency::total     59990000                       # number of overall miss cycles
system.cpu0.icache.demand_accesses::.cpu0.inst       293452                       # number of demand (read+write) accesses
system.cpu0.icache.demand_accesses::total       293452                       # number of demand (read+write) accesses
system.cpu0.icache.overall_accesses::.cpu0.inst       293452                       # number of overall (read+write) accesses
system.cpu0.icache.overall_accesses::total       293452                       # number of overall (read+write) accesses
system.cpu0.icache.demand_miss_rate::.cpu0.inst     0.007599                       # miss rate for demand accesses
system.cpu0.icache.demand_miss_rate::total     0.007599                       # miss rate for demand accesses
system.cpu0.icache.overall_miss_rate::.cpu0.inst     0.007599                       # miss rate for overall accesses
system.cpu0.icache.overall_miss_rate::total     0.007599                       # miss rate for overall accesses
system.cpu0.icache.demand_avg_miss_latency::.cpu0.inst 26901.345291                       # average overall miss latency
system.cpu0.icache.demand_avg_miss_latency::total 26901.345291                       # average overall miss latency
system.cpu0.icache.overall_avg_miss_latency::.cpu0.inst 26901.345291                       # average overall miss latency
system.cpu0.icache.overall_avg_miss_latency::total 26901.345291                       # average overall miss latency
system.cpu0.icache.blocked_cycles::no_mshrs            0                       # number of cycles access was blocked
system.cpu0.icache.blocked_cycles::no_targets            0                       # number of cycles access was blocked
system.cpu0.icache.blocked::no_mshrs                0                       # number of cycles access was blocked
system.cpu0.icache.blocked::no_targets              0                       # number of cycles access was blocked
system.cpu0.icache.avg_blocked_cycles::no_mshrs          nan                       # average number of cycles each access was blocked
system.cpu0.icache.avg_blocked_cycles::no_targets          nan                       # average number of cycles each access was blocked
system.cpu0.icache.writebacks::.writebacks         1884                       # number of writebacks
system.cpu0.icache.writebacks::total             1884                       # number of writebacks
system.cpu0.icache.demand_mshr_misses::.cpu0.inst         2230                       # number of demand (read+write) MSHR misses
system.cpu0.icache.demand_mshr_misses::total         2230                       # number of demand (read+write) MSHR misses
system.cpu0.icache.overall_mshr_misses::.cpu0.inst         2230                       # number of overall MSHR misses
system.cpu0.icache.overall_mshr_misses::total         2230                       # number of overall MSHR misses
system.cpu0.icache.demand_mshr_miss_latency::.cpu0.inst     57760000                       # number of demand (read+write) MSHR miss cycles
system.cpu0.icache.demand_mshr_miss_latency::total     57760000                       # number of demand (read+write) MSHR miss cycles
system.cpu0.icache.overall_mshr_miss_latency::.cpu0.inst     57760000                       # number of overall MSHR miss cycles
system.cpu0.icache.overall_mshr_miss_latency::total     57760000                       # number of overall MSHR miss cycles
system.cpu0.icache.demand_mshr_miss_rate::.cpu0.inst     0.007599                       # mshr miss rate for demand accesses
system.cpu0.icache.demand_mshr_miss_rate::total     0.007599                       # mshr miss rate for demand accesses
system.cpu0.icache.overall_mshr_miss_rate::.cpu0.inst     0.007599                       # mshr miss rate for overall accesses
system.cpu0.icache.overall_mshr_miss_rate::total     0.007599                       # mshr miss rate for overall accesses
system.cpu0.icache.demand_avg_mshr_miss_latency::.cpu0.inst 25901.345291                       # average overall mshr miss latency
system.cpu0.icache.demand_avg_mshr_miss_latency::total 25901.345291                       # average overall mshr miss latency
system.cpu0.icache.overall_avg_mshr_miss_latency::.cpu0.inst 25901.345291                       # average overall mshr miss latency
system.cpu0.icache.overall_avg_mshr_miss_latency::total 25901.345291                       # average overall mshr miss latency
system.cpu0.icache.replacements                  1884                       # number of replacements
system.cpu0.icache.ReadReq_hits::.cpu0.inst       291222                       # number of ReadReq hits
system.cpu0.icache.ReadReq_hits::total         291222                       # number of ReadReq hits
system.cpu0.icache.ReadReq_misses::.cpu0.inst         2230                       # number of ReadReq misses
system.cpu0.icache.ReadReq_misses::total         2230                       # number of ReadReq misses
system.cpu0.icache.ReadReq_miss_latency::.cpu0.inst     59990000                       # number of ReadReq miss cycles
system.cpu0.icache.ReadReq_miss_latency::total     59990000                       # number of ReadReq miss cycles
system.cpu0.icache.ReadReq_accesses::.cpu0.inst       293452                       # number of ReadReq accesses(hits+misses)
system.cpu0.icache.ReadReq_accesses::total       293452                       # number of ReadReq accesses(hits+misses)
system.cpu0.icache.ReadReq_miss_rate::.cpu0.inst     0.007599                       # miss rate for ReadReq accesses
system.cpu0.icache.ReadReq_miss_rate::total     0.007599                       # miss rate for ReadReq accesses
system.cpu0.icache.ReadReq_avg_miss_latency::.cpu0.inst 26901.345291                       # average ReadReq miss latency
system.cpu0.icache.ReadReq_avg_miss_latency::total 26901.345291                       # average ReadReq miss latency
system.cpu0.icache.ReadReq_mshr_misses::.cpu0.inst         2230                       # number of ReadReq MSHR misses
system.cpu0.icache.ReadReq_mshr_misses::total         2230                       # number of ReadReq MSHR misses
system.cpu0.icache.ReadReq_mshr_miss_latency::.cpu0.inst     57760000                       # number of ReadReq MSHR miss cycles
system.cpu0.icache.ReadReq_mshr_miss_latency::total     57760000                       # number of ReadReq MSHR miss cycles
system.cpu0.icache.ReadReq_mshr_miss_rate::.cpu0.inst     0.007599                       # mshr miss rate for ReadReq accesses
system.cpu0.icache.ReadReq_mshr_miss_rate::total     0.007599                       # mshr miss rate for ReadReq accesses
system.cpu0.icache.ReadReq_avg_mshr_miss_latency::.cpu0.inst 25901.345291                       # average ReadReq mshr miss latency
system.cpu0.icache.ReadReq_avg_mshr_miss_latency::total 25901.345291                       # average ReadReq mshr miss latency
system.cpu0.icache.tags.pwrStateResidencyTicks::UNDEFINED    782394500                       # Cumulative time (in ticks) in various power states
system.cpu0.icache.tags.tagsinuse          337.037256                       # Cycle average of tags in use
system.cpu0.icache.tags.total_refs             293452                       # Total number of references to valid blocks.
system.cpu0.icache.tags.sampled_refs             2230                       # Sample count of references to valid blocks.
system.cpu0.icache.tags.avg_refs           131.592825                       # Average number of references to valid blocks.
system.cpu0.icache.tags.warmup_cycle            87500                       # Cycle when the warmup percentage was hit.
system.cpu0.icache.tags.occ_blocks::.cpu0.inst   337.037256                       # Average occupied blocks per requestor
system.cpu0.icache.tags.occ_percent::.cpu0.inst     0.658276                       # Average percentage of cache occupancy
system.cpu0.icache.tags.occ_percent::total     0.658276                       # Average percentage of cache occupancy
system.cpu0.icache.tags.occ_task_id_blocks::1024          346                       # Occupied blocks per task id
system.cpu0.icache.tags.age_task_id_blocks_1024::0            2                       # Occupied blocks per task id
system.cpu0.icache.tags.age_task_id_blocks_1024::2          344                       # Occupied blocks per task id
system.cpu0.icache.tags.occ_task_id_percent::1024     0.675781                       # Percentage of cache occupancy per task id
system.cpu0.icache.tags.tag_accesses           589134                       # Number of tag accesses
system.cpu0.icache.tags.data_accesses          589134                       # Number of data accesses
system.cpu0.dtb.walker.pwrStateResidencyTicks::UNDEFINED    782394500                       # Cumulative time (in ticks) in various power states
system.cpu0.dtb.stage2_mmu.stage2_tlb.walker.pwrStateResidencyTicks::UNDEFINED    782394500                       # Cumulative time (in ticks) in various power states
system.cpu0.dcache.pwrStateResidencyTicks::UNDEFINED    782394500                       # Cumulative time (in ticks) in various power states
system.cpu0.dcache.demand_hits::.cpu0.data       377378                       # number of demand (read+write) hits
system.cpu0.dcache.demand_hits::total          377378                       # number of demand (read+write) hits
system.cpu0.dcache.overall_hits::.cpu0.data       377400                       # number of overall hits
system.cpu0.dcache.overall_hits::total         377400                       # number of overall hits
system.cpu0.dcache.demand_misses::.cpu0.data         3753                       # number of demand (read+write) misses
system.cpu0.dcache.demand_misses::total          3753                       # number of demand (read+write) misses
system.cpu0.dcache.overall_misses::.cpu0.data         3767                       # number of overall misses
system.cpu0.dcache.overall_misses::total         3767                       # number of overall misses
system.cpu0.dcache.demand_miss_latency::.cpu0.data    319092500                       # number of demand (read+write) miss cycles
system.cpu0.dcache.demand_miss_latency::total    319092500                       # number of demand (read+write) miss cycles
system.cpu0.dcache.overall_miss_latency::.cpu0.data    319092500                       # number of overall miss cycles
system.cpu0.dcache.overall_miss_latency::total    319092500                       # number of overall miss cycles
system.cpu0.dcache.demand_accesses::.cpu0.data       381131                       # number of demand (read+write) accesses
system.cpu0.dcache.demand_accesses::total       381131                       # number of demand (read+write) accesses
system.cpu0.dcache.overall_accesses::.cpu0.data       381167                       # number of overall (read+write) accesses
system.cpu0.dcache.overall_accesses::total       381167                       # number of overall (read+write) accesses
system.cpu0.dcache.demand_miss_rate::.cpu0.data     0.009847                       # miss rate for demand accesses
system.cpu0.dcache.demand_miss_rate::total     0.009847                       # miss rate for demand accesses
system.cpu0.dcache.overall_miss_rate::.cpu0.data     0.009883                       # miss rate for overall accesses
system.cpu0.dcache.overall_miss_rate::total     0.009883                       # miss rate for overall accesses
system.cpu0.dcache.demand_avg_miss_latency::.cpu0.data 85023.314682                       # average overall miss latency
system.cpu0.dcache.demand_avg_miss_latency::total 85023.314682                       # average overall miss latency
system.cpu0.dcache.overall_avg_miss_latency::.cpu0.data 84707.326785                       # average overall miss latency
system.cpu0.dcache.overall_avg_miss_latency::total 84707.326785                       # average overall miss latency
system.cpu0.dcache.blocked_cycles::no_mshrs            0                       # number of cycles access was blocked
system.cpu0.dcache.blocked_cycles::no_targets            0                       # number of cycles access was blocked
system.cpu0.dcache.blocked::no_mshrs                0                       # number of cycles access was blocked
system.cpu0.dcache.blocked::no_targets              0                       # number of cycles access was blocked
system.cpu0.dcache.avg_blocked_cycles::no_mshrs          nan                       # average number of cycles each access was blocked
system.cpu0.dcache.avg_blocked_cycles::no_targets          nan                       # average number of cycles each access was blocked
system.cpu0.dcache.writebacks::.writebacks          995                       # number of writebacks
system.cpu0.dcache.writebacks::total              995                       # number of writebacks
system.cpu0.dcache.demand_mshr_hits::.cpu0.data         1642                       # number of demand (read+write) MSHR hits
system.cpu0.dcache.demand_mshr_hits::total         1642                       # number of demand (read+write) MSHR hits
system.cpu0.dcache.overall_mshr_hits::.cpu0.data         1642                       # number of overall MSHR hits
system.cpu0.dcache.overall_mshr_hits::total         1642                       # number of overall MSHR hits
system.cpu0.dcache.demand_mshr_misses::.cpu0.data         2111                       # number of demand (read+write) MSHR misses
system.cpu0.dcache.demand_mshr_misses::total         2111                       # number of demand (read+write) MSHR misses
system.cpu0.dcache.overall_mshr_misses::.cpu0.data         2121                       # number of overall MSHR misses
system.cpu0.dcache.overall_mshr_misses::total         2121                       # number of overall MSHR misses
system.cpu0.dcache.demand_mshr_miss_latency::.cpu0.data    179904500                       # number of demand (read+write) MSHR miss cycles
system.cpu0.dcache.demand_mshr_miss_latency::total    179904500                       # number of demand (read+write) MSHR miss cycles
system.cpu0.dcache.overall_mshr_miss_latency::.cpu0.data    180800500                       # number of overall MSHR miss cycles
system.cpu0.dcache.overall_mshr_miss_latency::total    180800500                       # number of overall MSHR miss cycles
system.cpu0.dcache.demand_mshr_miss_rate::.cpu0.data     0.005539                       # mshr miss rate for demand accesses
system.cpu0.dcache.demand_mshr_miss_rate::total     0.005539                       # mshr miss rate for demand accesses
system.cpu0.dcache.overall_mshr_miss_rate::.cpu0.data     0.005564                       # mshr miss rate for overall accesses
system.cpu0.dcache.overall_mshr_miss_rate::total     0.005564                       # mshr miss rate for overall accesses
system.cpu0.dcache.demand_avg_mshr_miss_latency::.cpu0.data 85222.406442                       # average overall mshr miss latency
system.cpu0.dcache.demand_avg_mshr_miss_latency::total 85222.406442                       # average overall mshr miss latency
system.cpu0.dcache.overall_avg_mshr_miss_latency::.cpu0.data 85243.045733                       # average overall mshr miss latency
system.cpu0.dcache.overall_avg_mshr_miss_latency::total 85243.045733                       # average overall mshr miss latency
system.cpu0.dcache.replacements                  1099                       # number of replacements
system.cpu0.dcache.ReadReq_hits::.cpu0.data       213050                       # number of ReadReq hits
system.cpu0.dcache.ReadReq_hits::total         213050                       # number of ReadReq hits
system.cpu0.dcache.ReadReq_misses::.cpu0.data          179                       # number of ReadReq misses
system.cpu0.dcache.ReadReq_misses::total          179                       # number of ReadReq misses
system.cpu0.dcache.ReadReq_miss_latency::.cpu0.data     15010500                       # number of ReadReq miss cycles
system.cpu0.dcache.ReadReq_miss_latency::total     15010500                       # number of ReadReq miss cycles
system.cpu0.dcache.ReadReq_accesses::.cpu0.data       213229                       # number of ReadReq accesses(hits+misses)
system.cpu0.dcache.ReadReq_accesses::total       213229                       # number of ReadReq accesses(hits+misses)
system.cpu0.dcache.ReadReq_miss_rate::.cpu0.data     0.000839                       # miss rate for ReadReq accesses
system.cpu0.dcache.ReadReq_miss_rate::total     0.000839                       # miss rate for ReadReq accesses
system.cpu0.dcache.ReadReq_avg_miss_latency::.cpu0.data 83857.541899                       # average ReadReq miss latency
system.cpu0.dcache.ReadReq_avg_miss_latency::total 83857.541899                       # average ReadReq miss latency
system.cpu0.dcache.ReadReq_mshr_hits::.cpu0.data           11                       # number of ReadReq MSHR hits
system.cpu0.dcache.ReadReq_mshr_hits::total           11                       # number of ReadReq MSHR hits
system.cpu0.dcache.ReadReq_mshr_misses::.cpu0.data          168                       # number of ReadReq MSHR misses
system.cpu0.dcache.ReadReq_mshr_misses::total          168                       # number of ReadReq MSHR misses
system.cpu0.dcache.ReadReq_mshr_miss_latency::.cpu0.data     13983500                       # number of ReadReq MSHR miss cycles
system.cpu0.dcache.ReadReq_mshr_miss_latency::total     13983500                       # number of ReadReq MSHR miss cycles
system.cpu0.dcache.ReadReq_mshr_miss_rate::.cpu0.data     0.000788                       # mshr miss rate for ReadReq accesses
system.cpu0.dcache.ReadReq_mshr_miss_rate::total     0.000788                       # mshr miss rate for ReadReq accesses
system.cpu0.dcache.ReadReq_avg_mshr_miss_latency::.cpu0.data 83235.119048                       # average ReadReq mshr miss latency
system.cpu0.dcache.ReadReq_avg_mshr_miss_latency::total 83235.119048                       # average ReadReq mshr miss latency
system.cpu0.dcache.WriteReq_hits::.cpu0.data       164328                       # number of WriteReq hits
system.cpu0.dcache.WriteReq_hits::total        164328                       # number of WriteReq hits
system.cpu0.dcache.WriteReq_misses::.cpu0.data         3574                       # number of WriteReq misses
system.cpu0.dcache.WriteReq_misses::total         3574                       # number of WriteReq misses
system.cpu0.dcache.WriteReq_miss_latency::.cpu0.data    304082000                       # number of WriteReq miss cycles
system.cpu0.dcache.WriteReq_miss_latency::total    304082000                       # number of WriteReq miss cycles
system.cpu0.dcache.WriteReq_accesses::.cpu0.data       167902                       # number of WriteReq accesses(hits+misses)
system.cpu0.dcache.WriteReq_accesses::total       167902                       # number of WriteReq accesses(hits+misses)
system.cpu0.dcache.WriteReq_miss_rate::.cpu0.data     0.021286                       # miss rate for WriteReq accesses
system.cpu0.dcache.WriteReq_miss_rate::total     0.021286                       # miss rate for WriteReq accesses
system.cpu0.dcache.WriteReq_avg_miss_latency::.cpu0.data 85081.701175                       # average WriteReq miss latency
system.cpu0.dcache.WriteReq_avg_miss_latency::total 85081.701175                       # average WriteReq miss latency
system.cpu0.dcache.WriteReq_mshr_hits::.cpu0.data         1631                       # number of WriteReq MSHR hits
system.cpu0.dcache.WriteReq_mshr_hits::total         1631                       # number of WriteReq MSHR hits
system.cpu0.dcache.WriteReq_mshr_misses::.cpu0.data         1943                       # number of WriteReq MSHR misses
system.cpu0.dcache.WriteReq_mshr_misses::total         1943                       # number of WriteReq MSHR misses
system.cpu0.dcache.WriteReq_mshr_miss_latency::.cpu0.data    165921000                       # number of WriteReq MSHR miss cycles
system.cpu0.dcache.WriteReq_mshr_miss_latency::total    165921000                       # number of WriteReq MSHR miss cycles
system.cpu0.dcache.WriteReq_mshr_miss_rate::.cpu0.data     0.011572                       # mshr miss rate for WriteReq accesses
system.cpu0.dcache.WriteReq_mshr_miss_rate::total     0.011572                       # mshr miss rate for WriteReq accesses
system.cpu0.dcache.WriteReq_avg_mshr_miss_latency::.cpu0.data 85394.235718                       # average WriteReq mshr miss latency
system.cpu0.dcache.WriteReq_avg_mshr_miss_latency::total 85394.235718                       # average WriteReq mshr miss latency
system.cpu0.dcache.SoftPFReq_hits::.cpu0.data           22                       # number of SoftPFReq hits
system.cpu0.dcache.SoftPFReq_hits::total           22                       # number of SoftPFReq hits
system.cpu0.dcache.SoftPFReq_misses::.cpu0.data           14                       # number of SoftPFReq misses
system.cpu0.dcache.SoftPFReq_misses::total           14                       # number of SoftPFReq misses
system.cpu0.dcache.SoftPFReq_accesses::.cpu0.data           36                       # number of SoftPFReq accesses(hits+misses)
system.cpu0.dcache.SoftPFReq_accesses::total           36                       # number of SoftPFReq accesses(hits+misses)
system.cpu0.dcache.SoftPFReq_miss_rate::.cpu0.data     0.388889                       # miss rate for SoftPFReq accesses
system.cpu0.dcache.SoftPFReq_miss_rate::total     0.388889                       # miss rate for SoftPFReq accesses
system.cpu0.dcache.SoftPFReq_mshr_misses::.cpu0.data           10                       # number of SoftPFReq MSHR misses
system.cpu0.dcache.SoftPFReq_mshr_misses::total           10                       # number of SoftPFReq MSHR misses
system.cpu0.dcache.SoftPFReq_mshr_miss_latency::.cpu0.data       896000                       # number of SoftPFReq MSHR miss cycles
system.cpu0.dcache.SoftPFReq_mshr_miss_latency::total       896000                       # number of SoftPFReq MSHR miss cycles
system.cpu0.dcache.SoftPFReq_mshr_miss_rate::.cpu0.data     0.277778                       # mshr miss rate for SoftPFReq accesses
system.cpu0.dcache.SoftPFReq_mshr_miss_rate::total     0.277778                       # mshr miss rate for SoftPFReq accesses
system.cpu0.dcache.SoftPFReq_avg_mshr_miss_latency::.cpu0.data        89600                       # average SoftPFReq mshr miss latency
system.cpu0.dcache.SoftPFReq_avg_mshr_miss_latency::total        89600                       # average SoftPFReq mshr miss latency
system.cpu0.dcache.LoadLockedReq_hits::.cpu0.data         1195                       # number of LoadLockedReq hits
system.cpu0.dcache.LoadLockedReq_hits::total         1195                       # number of LoadLockedReq hits
system.cpu0.dcache.LoadLockedReq_misses::.cpu0.data            2                       # number of LoadLockedReq misses
system.cpu0.dcache.LoadLockedReq_misses::total            2                       # number of LoadLockedReq misses
system.cpu0.dcache.LoadLockedReq_miss_latency::.cpu0.data       173000                       # number of LoadLockedReq miss cycles
system.cpu0.dcache.LoadLockedReq_miss_latency::total       173000                       # number of LoadLockedReq miss cycles
system.cpu0.dcache.LoadLockedReq_accesses::.cpu0.data         1197                       # number of LoadLockedReq accesses(hits+misses)
system.cpu0.dcache.LoadLockedReq_accesses::total         1197                       # number of LoadLockedReq accesses(hits+misses)
system.cpu0.dcache.LoadLockedReq_miss_rate::.cpu0.data     0.001671                       # miss rate for LoadLockedReq accesses
system.cpu0.dcache.LoadLockedReq_miss_rate::total     0.001671                       # miss rate for LoadLockedReq accesses
system.cpu0.dcache.LoadLockedReq_avg_miss_latency::.cpu0.data        86500                       # average LoadLockedReq miss latency
system.cpu0.dcache.LoadLockedReq_avg_miss_latency::total        86500                       # average LoadLockedReq miss latency
system.cpu0.dcache.LoadLockedReq_mshr_misses::.cpu0.data            2                       # number of LoadLockedReq MSHR misses
system.cpu0.dcache.LoadLockedReq_mshr_misses::total            2                       # number of LoadLockedReq MSHR misses
system.cpu0.dcache.LoadLockedReq_mshr_miss_latency::.cpu0.data       171000                       # number of LoadLockedReq MSHR miss cycles
system.cpu0.dcache.LoadLockedReq_mshr_miss_latency::total       171000                       # number of LoadLockedReq MSHR miss cycles
[...]
system.mem_ctrls.wrQLenPdf::50                      0                       # What write queue length does an incoming req see
system.mem_ctrls.wrQLenPdf::51                      0                       # What write queue length does an incoming req see
system.mem_ctrls.wrQLenPdf::52                      0                       # What write queue length does an incoming req see
system.mem_ctrls.wrQLenPdf::53                      0                       # What write queue length does an incoming req see
system.mem_ctrls.wrQLenPdf::54                      0                       # What write queue length does an incoming req see
system.mem_ctrls.wrQLenPdf::55                      0                       # What write queue length does an incoming req see
system.mem_ctrls.wrQLenPdf::56                      0                       # What write queue length does an incoming req see
system.mem_ctrls.wrQLenPdf::57                      0                       # What write queue length does an incoming req see
system.mem_ctrls.wrQLenPdf::58                      0                       # What write queue length does an incoming req see
system.mem_ctrls.wrQLenPdf::59                      0                       # What write queue length does an incoming req see
system.mem_ctrls.wrQLenPdf::60                      0                       # What write queue length does an incoming req see
system.mem_ctrls.wrQLenPdf::61                      0                       # What write queue length does an incoming req see
system.mem_ctrls.wrQLenPdf::62                      0                       # What write queue length does an incoming req see
system.mem_ctrls.wrQLenPdf::63                      0                       # What write queue length does an incoming req see
system.mem_ctrls.bytesPerActivate::samples         1893                       # Bytes accessed per row activation
system.mem_ctrls.bytesPerActivate::mean    172.762810                       # Bytes accessed per row activation
system.mem_ctrls.bytesPerActivate::gmean   119.220436                       # Bytes accessed per row activation
system.mem_ctrls.bytesPerActivate::stdev   173.058451                       # Bytes accessed per row activation
system.mem_ctrls.bytesPerActivate::0-127         1085     57.32%     57.32% # Bytes accessed per row activation
system.mem_ctrls.bytesPerActivate::128-255          275     14.53%     71.84% # Bytes accessed per row activation
system.mem_ctrls.bytesPerActivate::256-383          276     14.58%     86.42% # Bytes accessed per row activation
system.mem_ctrls.bytesPerActivate::384-511          144      7.61%     94.03% # Bytes accessed per row activation
system.mem_ctrls.bytesPerActivate::512-639           54      2.85%     96.88% # Bytes accessed per row activation
system.mem_ctrls.bytesPerActivate::640-767           36      1.90%     98.78% # Bytes accessed per row activation
system.mem_ctrls.bytesPerActivate::768-895            4      0.21%     99.00% # Bytes accessed per row activation
system.mem_ctrls.bytesPerActivate::896-1023            4      0.21%     99.21% # Bytes accessed per row activation
system.mem_ctrls.bytesPerActivate::1024-1151           15      0.79%    100.00% # Bytes accessed per row activation
system.mem_ctrls.bytesPerActivate::total         1893                       # Bytes accessed per row activation
system.mem_ctrls.rdPerTurnAround::samples            2                       # Reads before turning the bus around for writes
system.mem_ctrls.rdPerTurnAround::mean           2129                       # Reads before turning the bus around for writes
system.mem_ctrls.rdPerTurnAround::gmean   1041.245408                       # Reads before turning the bus around for writes
system.mem_ctrls.rdPerTurnAround::stdev   2626.194585                       # Reads before turning the bus around for writes
system.mem_ctrls.rdPerTurnAround::256-383            1     50.00%     50.00% # Reads before turning the bus around for writes
system.mem_ctrls.rdPerTurnAround::3968-4095            1     50.00%    100.00% # Reads before turning the bus around for writes
system.mem_ctrls.rdPerTurnAround::total             2                       # Reads before turning the bus around for writes
system.mem_ctrls.wrPerTurnAround::samples            2                       # Writes before turning the bus around for reads
system.mem_ctrls.wrPerTurnAround::mean             17                       # Writes before turning the bus around for reads
system.mem_ctrls.wrPerTurnAround::gmean     16.970563                       # Writes before turning the bus around for reads
system.mem_ctrls.wrPerTurnAround::stdev      1.414214                       # Writes before turning the bus around for reads
system.mem_ctrls.wrPerTurnAround::16                1     50.00%     50.00% # Writes before turning the bus around for reads
system.mem_ctrls.wrPerTurnAround::18                1     50.00%    100.00% # Writes before turning the bus around for reads
system.mem_ctrls.wrPerTurnAround::total             2                       # Writes before turning the bus around for reads
system.mem_ctrls.bytesReadDRAM                 326016                       # Total number of bytes read from DRAM
system.mem_ctrls.bytesReadWrQ                       0                       # Total number of bytes read from write queue
system.mem_ctrls.bytesWritten                    2176                       # Total number of bytes written to DRAM
system.mem_ctrls.bytesReadSys                  326016                       # Total read bytes from the system interface side
system.mem_ctrls.bytesWrittenSys                 4032                       # Total written bytes from the system interface side
system.mem_ctrls.avgRdBW                       416.69                       # Average DRAM read bandwidth in MiByte/s
system.mem_ctrls.avgWrBW                         2.78                       # Average achieved write bandwidth in MiByte/s
system.mem_ctrls.avgRdBWSys                    416.69                       # Average system read bandwidth in MiByte/s
system.mem_ctrls.avgWrBWSys                      5.15                       # Average system write bandwidth in MiByte/s
system.mem_ctrls.peakBW                      12800.00                       # Theoretical peak bandwidth in MiByte/s
system.mem_ctrls.busUtil                         3.28                       # Data bus utilization in percentage
system.mem_ctrls.busUtilRead                     3.26                       # Data bus utilization in percentage for reads
system.mem_ctrls.busUtilWrite                    0.02                       # Data bus utilization in percentage for writes
system.mem_ctrls.totGap                     782262000                       # Total gap between requests
system.mem_ctrls.avgGap                     151689.35                       # Average gap between requests
system.mem_ctrls.masterReadBytes::.cpu0.inst        29248                       # Per-master bytes read from memory
system.mem_ctrls.masterReadBytes::.cpu0.data       133760                       # Per-master bytes read from memory
system.mem_ctrls.masterReadBytes::.cpu1.inst        29248                       # Per-master bytes read from memory
system.mem_ctrls.masterReadBytes::.cpu1.data       133760                       # Per-master bytes read from memory
system.mem_ctrls.masterWriteBytes::.writebacks         2176                       # Per-master bytes write to memory
system.mem_ctrls.masterReadRate::.cpu0.inst 37382675.875149942935                       # Per-master bytes read from memory rate (Bytes/sec)
system.mem_ctrls.masterReadRate::.cpu0.data 170962347.000138670206                       # Per-master bytes read from memory rate (Bytes/sec)
system.mem_ctrls.masterReadRate::.cpu1.inst 37382675.875149942935                       # Per-master bytes read from memory rate (Bytes/sec)
system.mem_ctrls.masterReadRate::.cpu1.data 170962347.000138670206                       # Per-master bytes read from memory rate (Bytes/sec)
system.mem_ctrls.masterWriteRate::.writebacks 2781205.644978332333                       # Per-master bytes write to memory rate (Bytes/sec)
system.mem_ctrls.masterReadAccesses::.cpu0.inst          457                       # Per-master read serviced memory accesses
system.mem_ctrls.masterReadAccesses::.cpu0.data         2090                       # Per-master read serviced memory accesses
system.mem_ctrls.masterReadAccesses::.cpu1.inst          457                       # Per-master read serviced memory accesses
system.mem_ctrls.masterReadAccesses::.cpu1.data         2090                       # Per-master read serviced memory accesses
system.mem_ctrls.masterWriteAccesses::.writebacks           63                       # Per-master write serviced memory accesses
system.mem_ctrls.masterReadTotalLat::.cpu0.inst     12484500                       # Per-master read total memory access latency
system.mem_ctrls.masterReadTotalLat::.cpu0.data     70428750                       # Per-master read total memory access latency
system.mem_ctrls.masterReadTotalLat::.cpu1.inst     12734750                       # Per-master read total memory access latency
system.mem_ctrls.masterReadTotalLat::.cpu1.data     70698750                       # Per-master read total memory access latency
system.mem_ctrls.masterWriteTotalLat::.writebacks   3085297750                       # Per-master write total memory access latency
system.mem_ctrls.masterReadAvgLat::.cpu0.inst     27318.38                       # Per-master read average memory access latency
system.mem_ctrls.masterReadAvgLat::.cpu0.data     33697.97                       # Per-master read average memory access latency
system.mem_ctrls.masterReadAvgLat::.cpu1.inst     27865.97                       # Per-master read average memory access latency
system.mem_ctrls.masterReadAvgLat::.cpu1.data     33827.15                       # Per-master read average memory access latency
system.mem_ctrls.masterWriteAvgLat::.writebacks  48972980.16                       # Per-master write average memory access latency
system.mem_ctrls.pageHitRate                    62.59                       # Row buffer hit rate, read and write combined
system.mem_ctrls.rank1.actEnergy              6326040                       # Energy for activate commands per rank (pJ)
system.mem_ctrls.rank1.preEnergy              3347190                       # Energy for precharge commands per rank (pJ)
system.mem_ctrls.rank1.readEnergy            16164960                       # Energy for read commands per rank (pJ)
system.mem_ctrls.rank1.writeEnergy               5220                       # Energy for write commands per rank (pJ)
system.mem_ctrls.rank1.refreshEnergy     61464000.000000                       # Energy for refresh commands per rank (pJ)
system.mem_ctrls.rank1.actBackEnergy        347324940                       # Energy for active background per rank (pJ)
system.mem_ctrls.rank1.preBackEnergy          7955520                       # Energy for precharge background per rank (pJ)
system.mem_ctrls.rank1.actPowerDownEnergy            0                       # Energy for active power-down per rank (pJ)
system.mem_ctrls.rank1.prePowerDownEnergy            0                       # Energy for precharge power-down per rank (pJ)
system.mem_ctrls.rank1.selfRefreshEnergy            0                       # Energy for self refresh per rank (pJ)
system.mem_ctrls.rank1.totalEnergy          442587870                       # Total energy per rank (pJ)
system.mem_ctrls.rank1.averagePower        565.683770                       # Core power per rank (mW)
system.mem_ctrls.rank1.totalIdleTime                0                       # Total Idle time Per DRAM Rank
system.mem_ctrls.rank1.memoryStateTime::IDLE     17853000                       # Time in different power states
system.mem_ctrls.rank1.memoryStateTime::REF     26000000                       # Time in different power states
system.mem_ctrls.rank1.memoryStateTime::SREF            0                       # Time in different power states
system.mem_ctrls.rank1.memoryStateTime::PRE_PDN            0                       # Time in different power states
system.mem_ctrls.rank1.memoryStateTime::ACT    738541500                       # Time in different power states
system.mem_ctrls.rank1.memoryStateTime::ACT_PDN            0                       # Time in different power states
system.mem_ctrls.rank0.actEnergy              7239960                       # Energy for activate commands per rank (pJ)
system.mem_ctrls.rank0.preEnergy              3836745                       # Energy for precharge commands per rank (pJ)
system.mem_ctrls.rank0.readEnergy            20206200                       # Energy for read commands per rank (pJ)
system.mem_ctrls.rank0.writeEnergy             172260                       # Energy for write commands per rank (pJ)
system.mem_ctrls.rank0.refreshEnergy     61464000.000000                       # Energy for refresh commands per rank (pJ)
system.mem_ctrls.rank0.actBackEnergy        347228040                       # Energy for active background per rank (pJ)
system.mem_ctrls.rank0.preBackEnergy          8037120                       # Energy for precharge background per rank (pJ)
system.mem_ctrls.rank0.actPowerDownEnergy            0                       # Energy for active power-down per rank (pJ)
system.mem_ctrls.rank0.prePowerDownEnergy            0                       # Energy for precharge power-down per rank (pJ)
system.mem_ctrls.rank0.selfRefreshEnergy            0                       # Energy for self refresh per rank (pJ)
system.mem_ctrls.rank0.totalEnergy          448184325                       # Total energy per rank (pJ)
system.mem_ctrls.rank0.averagePower        572.836753                       # Core power per rank (mW)
system.mem_ctrls.rank0.totalIdleTime                0                       # Total Idle time Per DRAM Rank
system.mem_ctrls.rank0.memoryStateTime::IDLE     18044250                       # Time in different power states
system.mem_ctrls.rank0.memoryStateTime::REF     26000000                       # Time in different power states
system.mem_ctrls.rank0.memoryStateTime::SREF            0                       # Time in different power states
system.mem_ctrls.rank0.memoryStateTime::PRE_PDN            0                       # Time in different power states
system.mem_ctrls.rank0.memoryStateTime::ACT    738350250                       # Time in different power states
system.mem_ctrls.rank0.memoryStateTime::ACT_PDN            0                       # Time in different power states
system.cpu_clk_domain.clock                       500                       # Clock period in ticks
system.tol2bus.pwrStateResidencyTicks::UNDEFINED    782394500                       # Cumulative time (in ticks) in various power states
system.tol2bus.trans_dist::ReadResp              4811                       # Transaction distribution
system.tol2bus.trans_dist::WritebackDirty         2060                       # Transaction distribution
system.tol2bus.trans_dist::WritebackClean         3767                       # Transaction distribution
system.tol2bus.trans_dist::CleanEvict             726                       # Transaction distribution
system.tol2bus.trans_dist::ReadExReq             3880                       # Transaction distribution
system.tol2bus.trans_dist::ReadExResp            3880                       # Transaction distribution
system.tol2bus.trans_dist::ReadCleanReq          4459                       # Transaction distribution
system.tol2bus.trans_dist::ReadSharedReq          352                       # Transaction distribution
system.tol2bus.pkt_count_system.cpu0.icache.mem_side::system.l2.cpu_side         6344                       # Packet count per connected master and slave (bytes)
system.tol2bus.pkt_count_system.cpu0.dcache.mem_side::system.l2.cpu_side         5345                       # Packet count per connected master and slave (bytes)
system.tol2bus.pkt_count_system.cpu1.icache.mem_side::system.l2.cpu_side         6341                       # Packet count per connected master and slave (bytes)
system.tol2bus.pkt_count_system.cpu1.dcache.mem_side::system.l2.cpu_side         5303                       # Packet count per connected master and slave (bytes)
system.tol2bus.pkt_count::total                 23333                       # Packet count per connected master and slave (bytes)
system.tol2bus.pkt_size_system.cpu0.icache.mem_side::system.l2.cpu_side       263296                       # Cumulative packet size per connected master and slave (bytes)
system.tol2bus.pkt_size_system.cpu0.dcache.mem_side::system.l2.cpu_side       199552                       # Cumulative packet size per connected master and slave (bytes)
system.tol2bus.pkt_size_system.cpu1.icache.mem_side::system.l2.cpu_side       263168                       # Cumulative packet size per connected master and slave (bytes)
system.tol2bus.pkt_size_system.cpu1.dcache.mem_side::system.l2.cpu_side       199104                       # Cumulative packet size per connected master and slave (bytes)
system.tol2bus.pkt_size::total                 925120                       # Cumulative packet size per connected master and slave (bytes)
system.tol2bus.snoops                             602                       # Total snoops (count)
system.tol2bus.snoopTraffic                      4032                       # Total snoop traffic (bytes)
system.tol2bus.snoop_fanout::samples             9293                       # Request fanout histogram
system.tol2bus.snoop_fanout::mean            0.064565                       # Request fanout histogram
system.tol2bus.snoop_fanout::stdev           0.249248                       # Request fanout histogram
system.tol2bus.snoop_fanout::underflows             0      0.00%      0.00% # Request fanout histogram
system.tol2bus.snoop_fanout::0                   8701     93.63%     93.63% # Request fanout histogram
system.tol2bus.snoop_fanout::1                    584      6.28%     99.91% # Request fanout histogram
system.tol2bus.snoop_fanout::2                      8      0.09%    100.00% # Request fanout histogram
system.tol2bus.snoop_fanout::3                      0      0.00%    100.00% # Request fanout histogram
system.tol2bus.snoop_fanout::4                      0      0.00%    100.00% # Request fanout histogram
system.tol2bus.snoop_fanout::overflows              0      0.00%    100.00% # Request fanout histogram
system.tol2bus.snoop_fanout::min_value              0                       # Request fanout histogram
system.tol2bus.snoop_fanout::max_value              2                       # Request fanout histogram
system.tol2bus.snoop_fanout::total               9293                       # Request fanout histogram
system.tol2bus.reqLayer0.occupancy           13085000                       # Layer occupancy (ticks)
system.tol2bus.reqLayer0.utilization              1.7                       # Layer utilization (%)
system.tol2bus.respLayer5.occupancy           3166993                       # Layer occupancy (ticks)
system.tol2bus.respLayer5.utilization             0.4                       # Layer utilization (%)
system.tol2bus.respLayer4.occupancy           3344498                       # Layer occupancy (ticks)
system.tol2bus.respLayer4.utilization             0.4                       # Layer utilization (%)
system.tol2bus.respLayer1.occupancy           3187494                       # Layer occupancy (ticks)
system.tol2bus.respLayer1.utilization             0.4                       # Layer utilization (%)
system.tol2bus.respLayer0.occupancy           3345000                       # Layer occupancy (ticks)
system.tol2bus.respLayer0.utilization             0.4                       # Layer utilization (%)

---------- End Simulation Statistics   ----------
