
---------- Begin Simulation Statistics ----------
final_tick                                  574775500                       # Number of ticks from beginning of simulation (restored from checkpoints and never reset)
host_inst_rate                                 245332                       # Simulator instruction rate (inst/s)
host_mem_usage                                 699908                       # Number of bytes of host memory used
host_op_rate                                   265494                       # Simulator op (including micro ops) rate (op/s)
host_seconds                                     7.06                       # Real time elapsed on the host
host_tick_rate                               81440277                       # Simulator tick rate (ticks/s)
sim_freq                                 1000000000000                       # Frequency of simulated ticks
sim_insts                                     1731431                       # Number of instructions simulated
sim_ops                                       1873743                       # Number of ops (including micro ops) simulated
sim_seconds                                  0.000575                       # Number of seconds simulated
sim_ticks                                   574775500                       # Number of ticks simulated
system.cpu0.branchPred.BTBCorrect                   0                       # Number of correct BTB predictions (this stat may not work properly.
system.cpu0.branchPred.BTBHitPct            86.931019                       # BTB Hit Percentage
system.cpu0.branchPred.BTBHits                  62393                       # Number of BTB hits
system.cpu0.branchPred.BTBLookups               71773                       # Number of BTB lookups
system.cpu0.branchPred.RASInCorrect               436                       # Number of incorrect RAS predictions.
system.cpu0.branchPred.condIncorrect             1945                       # Number of conditional branches incorrect
system.cpu0.branchPred.condPredicted           120562                       # Number of conditional branches predicted
system.cpu0.branchPred.indirectHits              2121                       # Number of indirect target hits.
system.cpu0.branchPred.indirectLookups           3080                       # Number of indirect predictor lookups.
system.cpu0.branchPred.indirectMisses             959                       # Number of indirect misses.
system.cpu0.branchPred.lookups                 154853                       # Number of BP lookups
system.cpu0.branchPred.usedRAS                  10015                       # Number of times the RAS was used to get a target.
system.cpu0.branchPredindirectMispredicted           89                       # Number of mispredicted indirect branches.
system.cpu0.committedInsts                     731431                       # Number of instructions committed
system.cpu0.committedOps                       806344                       # Number of ops (including micro ops) committed
system.cpu0.cpi                              1.571647                       # CPI: cycles per instruction
system.cpu0.discardedOps                        10463                       # Number of ops (including micro ops) which were discarded before commit
system.cpu0.dtb.accesses                            0                       # DTB accesses
system.cpu0.dtb.align_faults                        0                       # Number of TLB faults due to alignment restrictions
system.cpu0.dtb.domain_faults                       0                       # Number of TLB faults due to domain restrictions
system.cpu0.dtb.flush_entries                       0                       # Number of entries that have been flushed from TLB
system.cpu0.dtb.flush_tlb                           0                       # Number of times complete TLB was flushed
system.cpu0.dtb.flush_tlb_asid                      0                       # Number of times TLB was flushed by ASID
system.cpu0.dtb.flush_tlb_mva                       0                       # Number of times TLB was flushed by MVA
system.cpu0.dtb.flush_tlb_mva_asid                  0                       # Number of times TLB was flushed by MVA & ASID
system.cpu0.dtb.hits                                0                       # DTB hits
system.cpu0.dtb.inst_accesses                       0                       # ITB inst accesses
system.cpu0.dtb.inst_hits                           0                       # ITB inst hits
system.cpu0.dtb.inst_misses                         0                       # ITB inst misses
system.cpu0.dtb.misses                              0                       # DTB misses
system.cpu0.dtb.perms_faults                        0                       # Number of TLB faults due to permissions restrictions
system.cpu0.dtb.prefetch_faults                     0                       # Number of TLB faults due to prefetch
system.cpu0.dtb.read_accesses                       0                       # DTB read accesses
system.cpu0.dtb.read_hits                           0                       # DTB read hits
system.cpu0.dtb.read_misses                         0                       # DTB read misses
system.cpu0.dtb.stage2_mmu.stage2_tlb.accesses            0                       # DTB accesses
system.cpu0.dtb.stage2_mmu.stage2_tlb.align_faults            0                       # Number of TLB faults due to alignment restrictions
system.cpu0.dtb.stage2_mmu.stage2_tlb.domain_faults            0                       # Number of TLB faults due to domain restrictions
system.cpu0.dtb.stage2_mmu.stage2_tlb.flush_entries            0                       # Number of entries that have been flushed from TLB
system.cpu0.dtb.stage2_mmu.stage2_tlb.flush_tlb            0                       # Number of times complete TLB was flushed
system.cpu0.dtb.stage2_mmu.stage2_tlb.flush_tlb_asid            0                       # Number of times TLB was flushed by ASID
system.cpu0.dtb.stage2_mmu.stage2_tlb.flush_tlb_mva            0                       # Number of times TLB was flushed by MVA
system.cpu0.dtb.stage2_mmu.stage2_tlb.flush_tlb_mva_asid            0                       # Number of times TLB was flushed by MVA & ASID
system.cpu0.dtb.stage2_mmu.stage2_tlb.hits            0                       # DTB hits
system.cpu0.dtb.stage2_mmu.stage2_tlb.inst_accesses            0                       # ITB inst accesses
system.cpu0.dtb.stage2_mmu.stage2_tlb.inst_hits            0                       # ITB inst hits
system.cpu0.dtb.stage2_mmu.stage2_tlb.inst_misses            0                       # ITB inst misses
system.cpu0.dtb.stage2_mmu.stage2_tlb.misses            0                       # DTB misses
system.cpu0.dtb.stage2_mmu.stage2_tlb.perms_faults            0                       # Number of TLB faults due to permissions restrictions
system.cpu0.dtb.stage2_mmu.stage2_tlb.prefetch_faults            0                       # Number of TLB faults due to prefetch
system.cpu0.dtb.stage2_mmu.stage2_tlb.read_accesses            0                       # DTB read accesses
system.cpu0.dtb.stage2_mmu.stage2_tlb.read_hits            0                       # DTB read hits
system.cpu0.dtb.stage2_mmu.stage2_tlb.read_misses            0                       # DTB read misses
system.cpu0.dtb.stage2_mmu.stage2_tlb.walker.walkRequestOrigin_Requested::Data            0                       # Table walker requests started/completed, data/inst
system.cpu0.dtb.stage2_mmu.stage2_tlb.walker.walkRequestOrigin_Requested::Inst            0                       # Table walker requests started/completed, data/inst
system.cpu0.dtb.stage2_mmu.stage2_tlb.walker.walkRequestOrigin_Requested::total            0                       # Table walker requests started/completed, data/inst
system.cpu0.dtb.stage2_mmu.stage2_tlb.walker.walkRequestOrigin_Completed::Data            0                       # Table walker requests started/completed, data/inst
system.cpu0.dtb.stage2_mmu.stage2_tlb.walker.walkRequestOrigin_Completed::Inst            0                       # Table walker requests started/completed, data/inst
system.cpu0.dtb.stage2_mmu.stage2_tlb.walker.walkRequestOrigin_Completed::total            0                       # Table walker requests started/completed, data/inst
system.cpu0.dtb.stage2_mmu.stage2_tlb.walker.walkRequestOrigin::total            0                       # Table walker requests started/completed, data/inst
system.cpu0.dtb.stage2_mmu.stage2_tlb.walker.walks            0                       # Table walker walks requested
system.cpu0.dtb.stage2_mmu.stage2_tlb.write_accesses            0                       # DTB write accesses
system.cpu0.dtb.stage2_mmu.stage2_tlb.write_hits            0                       # DTB write hits
system.cpu0.dtb.stage2_mmu.stage2_tlb.write_misses            0                       # DTB write misses
system.cpu0.dtb.walker.walkRequestOrigin_Requested::Data            0                       # Table walker requests started/completed, data/inst
system.cpu0.dtb.walker.walkRequestOrigin_Requested::Inst            0                       # Table walker requests started/completed, data/inst
system.cpu0.dtb.walker.walkRequestOrigin_Requested::total            0                       # Table walker requests started/completed, data/inst
system.cpu0.dtb.walker.walkRequestOrigin_Completed::Data            0                       # Table walker requests started/completed, data/inst
system.cpu0.dtb.walker.walkRequestOrigin_Completed::Inst            0                       # Table walker requests started/completed, data/inst
system.cpu0.dtb.walker.walkRequestOrigin_Completed::total            0                       # Table walker requests started/completed, data/inst
system.cpu0.dtb.walker.walkRequestOrigin::total            0                       # Table walker requests started/completed, data/inst
system.cpu0.dtb.walker.walks                        0                       # Table walker walks requested
system.cpu0.dtb.write_accesses                      0                       # DTB write accesses
system.cpu0.dtb.write_hits                          0                       # DTB write hits
system.cpu0.dtb.write_misses                        0                       # DTB write misses
system.cpu0.fetch2.amo_instructions                 0                       # Number of memory atomic instructions successfully decoded
system.cpu0.fetch2.fp_instructions                  0                       # Number of floating point instructions successfully decoded
system.cpu0.fetch2.int_instructions            352791                       # Number of integer instructions successfully decoded
system.cpu0.fetch2.load_instructions           135735                       # Number of memory load instructions successfully decoded
system.cpu0.fetch2.store_instructions           92767                       # Number of memory store instructions successfully decoded
system.cpu0.fetch2.vec_instructions                 0                       # Number of SIMD instructions successfully decoded
system.cpu0.idleCycles                         295003                       # Total number of cycles that the object has spent stopped
system.cpu0.ipc                              0.636275                       # IPC: instructions per cycle
system.cpu0.itb.accesses                            0                       # DTB accesses
system.cpu0.itb.align_faults                        0                       # Number of TLB faults due to alignment restrictions
system.cpu0.itb.domain_faults                       0                       # Number of TLB faults due to domain restrictions
system.cpu0.itb.flush_entries                       0                       # Number of entries that have been flushed from TLB
system.cpu0.itb.flush_tlb                           0                       # Number of times complete TLB was flushed
system.cpu0.itb.flush_tlb_asid                      0                       # Number of times TLB was flushed by ASID
system.cpu0.itb.flush_tlb_mva                       0                       # Number of times TLB was flushed by MVA
system.cpu0.itb.flush_tlb_mva_asid                  0                       # Number of times TLB was flushed by MVA & ASID
system.cpu0.itb.hits                                0                       # DTB hits
system.cpu0.itb.inst_accesses                       0                       # ITB inst accesses
system.cpu0.itb.inst_hits                           0                       # ITB inst hits
system.cpu0.itb.inst_misses                         0                       # ITB inst misses
system.cpu0.itb.misses                              0                       # DTB misses
system.cpu0.itb.perms_faults                        0                       # Number of TLB faults due to permissions restrictions
system.cpu0.itb.prefetch_faults                     0                       # Number of TLB faults due to prefetch
system.cpu0.itb.read_accesses                       0                       # DTB read accesses
system.cpu0.itb.read_hits                           0                       # DTB read hits
system.cpu0.itb.read_misses                         0                       # DTB read misses
system.cpu0.itb.stage2_mmu.stage2_tlb.accesses            0                       # DTB accesses
system.cpu0.itb.stage2_mmu.stage2_tlb.align_faults            0                       # Number of TLB faults due to alignment restrictions
system.cpu0.itb.stage2_mmu.stage2_tlb.domain_faults            0                       # Number of TLB faults due to domain restrictions
system.cpu0.itb.stage2_mmu.stage2_tlb.flush_entries            0                       # Number of entries that have been flushed from TLB
system.cpu0.itb.stage2_mmu.stage2_tlb.flush_tlb            0                       # Number of times complete TLB was flushed
system.cpu0.itb.stage2_mmu.stage2_tlb.flush_tlb_asid            0                       # Number of times TLB was flushed by ASID
system.cpu0.itb.stage2_mmu.stage2_tlb.flush_tlb_mva            0                       # Number of times TLB was flushed by MVA
system.cpu0.itb.stage2_mmu.stage2_tlb.flush_tlb_mva_asid            0                       # Number of times TLB was flushed by MVA & ASID
system.cpu0.itb.stage2_mmu.stage2_tlb.hits            0                       # DTB hits
system.cpu0.itb.stage2_mmu.stage2_tlb.inst_accesses            0                       # ITB inst accesses
system.cpu0.itb.stage2_mmu.stage2_tlb.inst_hits            0                       # ITB inst hits
system.cpu0.itb.stage2_mmu.stage2_tlb.inst_misses            0                       # ITB inst misses
system.cpu0.itb.stage2_mmu.stage2_tlb.misses            0                       # DTB misses
system.cpu0.itb.stage2_mmu.stage2_tlb.perms_faults            0                       # Number of TLB faults due to permissions restrictions
system.cpu0.itb.stage2_mmu.stage2_tlb.prefetch_faults            0                       # Number of TLB faults due to prefetch
system.cpu0.itb.stage2_mmu.stage2_tlb.read_accesses            0                       # DTB read accesses
system.cpu0.itb.stage2_mmu.stage2_tlb.read_hits            0                       # DTB read hits
system.cpu0.itb.stage2_mmu.stage2_tlb.read_misses            0                       # DTB read misses
system.cpu0.itb.stage2_mmu.stage2_tlb.walker.walkRequestOrigin_Requested::Data            0                       # Table walker requests started/completed, data/inst
system.cpu0.itb.stage2_mmu.stage2_tlb.walker.walkRequestOrigin_Requested::Inst            0                       # Table walker requests started/completed, data/inst
system.cpu0.itb.stage2_mmu.stage2_tlb.walker.walkRequestOrigin_Requested::total            0                       # Table walker requests started/completed, data/inst
system.cpu0.itb.stage2_mmu.stage2_tlb.walker.walkRequestOrigin_Completed::Data            0                       # Table walker requests started/completed, data/inst
system.cpu0.itb.stage2_mmu.stage2_tlb.walker.walkRequestOrigin_Completed::Inst            0                       # Table walker requests started/completed, data/inst
system.cpu0.itb.stage2_mmu.stage2_tlb.walker.walkRequestOrigin_Completed::total            0                       # Table walker requests started/completed, data/inst
system.cpu0.itb.stage2_mmu.stage2_tlb.walker.walkRequestOrigin::total            0                       # Table walker requests started/completed, data/inst
system.cpu0.itb.stage2_mmu.stage2_tlb.walker.walks            0                       # Table walker walks requested
system.cpu0.itb.stage2_mmu.stage2_tlb.write_accesses            0                       # DTB write accesses
system.cpu0.itb.stage2_mmu.stage2_tlb.write_hits            0                       # DTB write hits
system.cpu0.itb.stage2_mmu.stage2_tlb.write_misses            0                       # DTB write misses
system.cpu0.itb.walker.walkRequestOrigin_Requested::Data            0                       # Table walker requests started/completed, data/inst
system.cpu0.itb.walker.walkRequestOrigin_Requested::Inst            0                       # Table walker requests started/completed, data/inst
system.cpu0.itb.walker.walkRequestOrigin_Requested::total            0                       # Table walker requests started/completed, data/inst
system.cpu0.itb.walker.walkRequestOrigin_Completed::Data            0                       # Table walker requests started/completed, data/inst
system.cpu0.itb.walker.walkRequestOrigin_Completed::Inst            0                       # Table walker requests started/completed, data/inst
system.cpu0.itb.walker.walkRequestOrigin_Completed::total            0                       # Table walker requests started/completed, data/inst
system.cpu0.itb.walker.walkRequestOrigin::total            0                       # Table walker requests started/completed, data/inst
system.cpu0.itb.walker.walks                        0                       # Table walker walks requested
system.cpu0.itb.write_accesses                      0                       # DTB write accesses
system.cpu0.itb.write_hits                          0                       # DTB write hits
system.cpu0.itb.write_misses                        0                       # DTB write misses
system.cpu0.numCycles                         1149551                       # number of cpu cycles simulated
system.cpu0.numFetchSuspends                        0                       # Number of times Execute suspended instruction fetching
system.cpu0.numWorkItemsCompleted                   0                       # number of work items this cpu completed
system.cpu0.numWorkItemsStarted                     0                       # number of work items this cpu started
system.cpu0.op_class_0::No_OpClass                  0      0.00%      0.00% # Class of committed instruction
system.cpu0.op_class_0::IntAlu                 515111     63.88%     63.88% # Class of committed instruction
system.cpu0.op_class_0::IntMult                  2531      0.31%     64.20% # Class of committed instruction
system.cpu0.op_class_0::IntDiv                      0      0.00%     64.20% # Class of committed instruction
system.cpu0.op_class_0::FloatAdd                    0      0.00%     64.20% # Class of committed instruction
system.cpu0.op_class_0::FloatCmp                    0      0.00%     64.20% # Class of committed instruction
system.cpu0.op_class_0::FloatCvt                    0      0.00%     64.20% # Class of committed instruction
system.cpu0.op_class_0::FloatMult                   0      0.00%     64.20% # Class of committed instruction
system.cpu0.op_class_0::FloatMultAcc                0      0.00%     64.20% # Class of committed instruction
system.cpu0.op_class_0::FloatDiv                    0      0.00%     64.20% # Class of committed instruction
system.cpu0.op_class_0::FloatMisc                   0      0.00%     64.20% # Class of committed instruction
system.cpu0.op_class_0::FloatSqrt                   0      0.00%     64.20% # Class of committed instruction
system.cpu0.op_class_0::SimdAdd                     0      0.00%     64.20% # Class of committed instruction
system.cpu0.op_class_0::SimdAddAcc                  0      0.00%     64.20% # Class of committed instruction
system.cpu0.op_class_0::SimdAlu                     0      0.00%     64.20% # Class of committed instruction
system.cpu0.op_class_0::SimdCmp                     0      0.00%     64.20% # Class of committed instruction
system.cpu0.op_class_0::SimdCvt                     0      0.00%     64.20% # Class of committed instruction
system.cpu0.op_class_0::SimdMisc                    0      0.00%     64.20% # Class of committed instruction
system.cpu0.op_class_0::SimdMult                    0      0.00%     64.20% # Class of committed instruction
system.cpu0.op_class_0::SimdMultAcc                 0      0.00%     64.20% # Class of committed instruction
system.cpu0.op_class_0::SimdShift                   0      0.00%     64.20% # Class of committed instruction
system.cpu0.op_class_0::SimdShiftAcc                0      0.00%     64.20% # Class of committed instruction
system.cpu0.op_class_0::SimdDiv                     0      0.00%     64.20% # Class of committed instruction
system.cpu0.op_class_0::SimdSqrt                    0      0.00%     64.20% # Class of committed instruction
system.cpu0.op_class_0::SimdFloatAdd                0      0.00%     64.20% # Class of committed instruction
system.cpu0.op_class_0::SimdFloatAlu                0      0.00%     64.20% # Class of committed instruction
system.cpu0.op_class_0::SimdFloatCmp                0      0.00%     64.20% # Class of committed instruction
system.cpu0.op_class_0::SimdFloatCvt                0      0.00%     64.20% # Class of committed instruction
system.cpu0.op_class_0::SimdFloatDiv                0      0.00%     64.20% # Class of committed instruction
system.cpu0.op_class_0::SimdFloatMisc               0      0.00%     64.20% # Class of committed instruction
system.cpu0.op_class_0::SimdFloatMult               0      0.00%     64.20% # Class of committed instruction
system.cpu0.op_class_0::SimdFloatMultAcc            0      0.00%     64.20% # Class of committed instruction
system.cpu0.op_class_0::SimdFloatSqrt               0      0.00%     64.20% # Class of committed instruction
system.cpu0.op_class_0::SimdReduceAdd               0      0.00%     64.20% # Class of committed instruction
system.cpu0.op_class_0::SimdReduceAlu               0      0.00%     64.20% # Class of committed instruction
system.cpu0.op_class_0::SimdReduceCmp               0      0.00%     64.20% # Class of committed instruction
system.cpu0.op_class_0::SimdFloatReduceAdd            0      0.00%     64.20% # Class of committed instruction
system.cpu0.op_class_0::SimdFloatReduceCmp            0      0.00%     64.20% # Class of committed instruction
system.cpu0.op_class_0::SimdAes                     0      0.00%     64.20% # Class of committed instruction
system.cpu0.op_class_0::SimdAesMix                  0      0.00%     64.20% # Class of committed instruction
system.cpu0.op_class_0::SimdSha1Hash                0      0.00%     64.20% # Class of committed instruction
system.cpu0.op_class_0::SimdSha1Hash2               0      0.00%     64.20% # Class of committed instruction
system.cpu0.op_class_0::SimdSha256Hash              0      0.00%     64.20% # Class of committed instruction
system.cpu0.op_class_0::SimdSha256Hash2             0      0.00%     64.20% # Class of committed instruction
system.cpu0.op_class_0::SimdShaSigma2               0      0.00%     64.20% # Class of committed instruction
system.cpu0.op_class_0::SimdShaSigma3               0      0.00%     64.20% # Class of committed instruction
system.cpu0.op_class_0::SimdPredAlu                 0      0.00%     64.20% # Class of committed instruction
system.cpu0.op_class_0::MemRead                158630     19.67%     83.87% # Class of committed instruction
system.cpu0.op_class_0::MemWrite               130072     16.13%    100.00% # Class of committed instruction
system.cpu0.op_class_0::FloatMemRead                0      0.00%    100.00% # Class of committed instruction
system.cpu0.op_class_0::FloatMemWrite               0      0.00%    100.00% # Class of committed instruction
system.cpu0.op_class_0::IprAccess                   0      0.00%    100.00% # Class of committed instruction
system.cpu0.op_class_0::InstPrefetch                0      0.00%    100.00% # Class of committed instruction
system.cpu0.op_class_0::total                  806344                       # Class of committed instruction
system.cpu0.tickCycles                         854548                       # Number of cycles that the object actually ticked
system.cpu0.workload.numSyscalls                   23                       # Number of system calls
system.cpu1.branchPred.BTBCorrect                   0                       # Number of correct BTB predictions (this stat may not work properly.
system.cpu1.branchPred.BTBHitPct            81.432797                       # BTB Hit Percentage
system.cpu1.branchPred.BTBHits                  63871                       # Number of BTB hits
system.cpu1.branchPred.BTBLookups               78434                       # Number of BTB lookups
system.cpu1.branchPred.RASInCorrect                59                       # Number of incorrect RAS predictions.
system.cpu1.branchPred.condIncorrect             1498                       # Number of conditional branches incorrect
system.cpu1.branchPred.condPredicted            90649                       # Number of conditional branches predicted
system.cpu1.branchPred.indirectHits              4232                       # Number of indirect target hits.
system.cpu1.branchPred.indirectLookups           6448                       # Number of indirect predictor lookups.
system.cpu1.branchPred.indirectMisses            2216                       # Number of indirect misses.
system.cpu1.branchPred.lookups                 152790                       # Number of BP lookups
system.cpu1.branchPred.usedRAS                  28904                       # Number of times the RAS was used to get a target.
system.cpu1.branchPredindirectMispredicted          297                       # Number of mispredicted indirect branches.
system.cpu1.committedInsts                    1000000                       # Number of instructions committed
system.cpu1.committedOps                      1067399                       # Number of ops (including micro ops) committed
system.cpu1.cpi                              1.149551                       # CPI: cycles per instruction
system.cpu1.discardedOps                         5936                       # Number of ops (including micro ops) which were discarded before commit
system.cpu1.dtb.accesses                            0                       # DTB accesses
system.cpu1.dtb.align_faults                        0                       # Number of TLB faults due to alignment restrictions
system.cpu1.dtb.domain_faults                       0                       # Number of TLB faults due to domain restrictions
system.cpu1.dtb.flush_entries                       0                       # Number of entries that have been flushed from TLB
system.cpu1.dtb.flush_tlb                           0                       # Number of times complete TLB was flushed
system.cpu1.dtb.flush_tlb_asid                      0                       # Number of times TLB was flushed by ASID
system.cpu1.dtb.flush_tlb_mva                       0                       # Number of times TLB was flushed by MVA
system.cpu1.dtb.flush_tlb_mva_asid                  0                       # Number of times TLB was flushed by MVA & ASID
system.cpu1.dtb.hits                                0                       # DTB hits
system.cpu1.dtb.inst_accesses                       0                       # ITB inst accesses
system.cpu1.dtb.inst_hits                           0                       # ITB inst hits
system.cpu1.dtb.inst_misses                         0                       # ITB inst misses
system.cpu1.dtb.misses                              0                       # DTB misses
system.cpu1.dtb.perms_faults                        0                       # Number of TLB faults due to permissions restrictions
system.cpu1.dtb.prefetch_faults                     0                       # Number of TLB faults due to prefetch
system.cpu1.dtb.read_accesses                       0                       # DTB read accesses
system.cpu1.dtb.read_hits                           0                       # DTB read hits
system.cpu1.dtb.read_misses                         0                       # DTB read misses
system.cpu1.dtb.stage2_mmu.stage2_tlb.accesses            0                       # DTB accesses
system.cpu1.dtb.stage2_mmu.stage2_tlb.align_faults            0                       # Number of TLB faults due to alignment restrictions
system.cpu1.dtb.stage2_mmu.stage2_tlb.domain_faults            0                       # Number of TLB faults due to domain restrictions
system.cpu1.dtb.stage2_mmu.stage2_tlb.flush_entries            0                       # Number of entries that have been flushed from TLB
system.cpu1.dtb.stage2_mmu.stage2_tlb.flush_tlb            0                       # Number of times complete TLB was flushed
system.cpu1.dtb.stage2_mmu.stage2_tlb.flush_tlb_asid            0                       # Number of times TLB was flushed by ASID
system.cpu1.dtb.stage2_mmu.stage2_tlb.flush_tlb_mva            0                       # Number of times TLB was flushed by MVA
system.cpu1.dtb.stage2_mmu.stage2_tlb.flush_tlb_mva_asid            0                       # Number of times TLB was flushed by MVA & ASID
system.cpu1.dtb.stage2_mmu.stage2_tlb.hits            0                       # DTB hits
system.cpu1.dtb.stage2_mmu.stage2_tlb.inst_accesses            0                       # ITB inst accesses
system.cpu1.dtb.stage2_mmu.stage2_tlb.inst_hits            0                       # ITB inst hits
system.cpu1.dtb.stage2_mmu.stage2_tlb.inst_misses            0                       # ITB inst misses
system.cpu1.dtb.stage2_mmu.stage2_tlb.misses            0                       # DTB misses
system.cpu1.dtb.stage2_mmu.stage2_tlb.perms_faults            0                       # Number of TLB faults due to permissions restrictions
system.cpu1.dtb.stage2_mmu.stage2_tlb.prefetch_faults            0                       # Number of TLB faults due to prefetch
system.cpu1.dtb.stage2_mmu.stage2_tlb.read_accesses            0                       # DTB read accesses
system.cpu1.dtb.stage2_mmu.stage2_tlb.read_hits            0                       # DTB read hits
system.cpu1.dtb.stage2_mmu.stage2_tlb.read_misses            0                       # DTB read misses
system.cpu1.dtb.stage2_mmu.stage2_tlb.walker.walkRequestOrigin_Requested::Data            0                       # Table walker requests started/completed, data/inst
system.cpu1.dtb.stage2_mmu.stage2_tlb.walker.walkRequestOrigin_Requested::Inst            0                       # Table walker requests started/completed, data/inst
system.cpu1.dtb.stage2_mmu.stage2_tlb.walker.walkRequestOrigin_Requested::total            0                       # Table walker requests started/completed, data/inst
system.cpu1.dtb.stage2_mmu.stage2_tlb.walker.walkRequestOrigin_Completed::Data            0                       # Table walker requests started/completed, data/inst
system.cpu1.dtb.stage2_mmu.stage2_tlb.walker.walkRequestOrigin_Completed::Inst            0                       # Table walker requests started/completed, data/inst
system.cpu1.dtb.stage2_mmu.stage2_tlb.walker.walkRequestOrigin_Completed::total            0                       # Table walker requests started/completed, data/inst
system.cpu1.dtb.stage2_mmu.stage2_tlb.walker.walkRequestOrigin::total            0                       # Table walker requests started/completed, data/inst
system.cpu1.dtb.stage2_mmu.stage2_tlb.walker.walks            0                       # Table walker walks requested
system.cpu1.dtb.stage2_mmu.stage2_tlb.write_accesses            0                       # DTB write accesses
system.cpu1.dtb.stage2_mmu.stage2_tlb.write_hits            0                       # DTB write hits
system.cpu1.dtb.stage2_mmu.stage2_tlb.write_misses            0                       # DTB write misses
system.cpu1.dtb.walker.walkRequestOrigin_Requested::Data            0                       # Table walker requests started/completed, data/inst
system.cpu1.dtb.walker.walkRequestOrigin_Requested::Inst            0                       # Table walker requests started/completed, data/inst
system.cpu1.dtb.walker.walkRequestOrigin_Requested::total            0                       # Table walker requests started/completed, data/inst
system.cpu1.dtb.walker.walkRequestOrigin_Completed::Data            0                       # Table walker requests started/completed, data/inst
system.cpu1.dtb.walker.walkRequestOrigin_Completed::Inst            0                       # Table walker requests started/completed, data/inst
system.cpu1.dtb.walker.walkRequestOrigin_Completed::total            0                       # Table walker requests started/completed, data/inst
system.cpu1.dtb.walker.walkRequestOrigin::total            0                       # Table walker requests started/completed, data/inst
system.cpu1.dtb.walker.walks                        0                       # Table walker walks requested
system.cpu1.dtb.write_accesses                      0                       # DTB write accesses
system.cpu1.dtb.write_hits                          0                       # DTB write hits
system.cpu1.dtb.write_misses                        0                       # DTB write misses
system.cpu1.fetch2.amo_instructions                 0                       # Number of memory atomic instructions successfully decoded
system.cpu1.fetch2.fp_instructions                  0                       # Number of floating point instructions successfully decoded
system.cpu1.fetch2.int_instructions            770954                       # Number of integer instructions successfully decoded
system.cpu1.fetch2.load_instructions           102008                       # Number of memory load instructions successfully decoded
system.cpu1.fetch2.store_instructions           39311                       # Number of memory store instructions successfully decoded
system.cpu1.fetch2.vec_instructions                 0                       # Number of SIMD instructions successfully decoded
system.cpu1.idleCycles                         110266                       # Total number of cycles that the object has spent stopped
system.cpu1.ipc                              0.869905                       # IPC: instructions per cycle
system.cpu1.itb.accesses                            0                       # DTB accesses
system.cpu1.itb.align_faults                        0                       # Number of TLB faults due to alignment restrictions
system.cpu1.itb.domain_faults                       0                       # Number of TLB faults due to domain restrictions
system.cpu1.itb.flush_entries                       0                       # Number of entries that have been flushed from TLB
system.cpu1.itb.flush_tlb                           0                       # Number of times complete TLB was flushed
system.cpu1.itb.flush_tlb_asid                      0                       # Number of times TLB was flushed by ASID
system.cpu1.itb.flush_tlb_mva                       0                       # Number of times TLB was flushed by MVA
system.cpu1.itb.flush_tlb_mva_asid                  0                       # Number of times TLB was flushed by MVA & ASID
system.cpu1.itb.hits                                0                       # DTB hits
system.cpu1.itb.inst_accesses                       0                       # ITB inst accesses
system.cpu1.itb.inst_hits                           0                       # ITB inst hits
system.cpu1.itb.inst_misses                         0                       # ITB inst misses
system.cpu1.itb.misses                              0                       # DTB misses
system.cpu1.itb.perms_faults                        0                       # Number of TLB faults due to permissions restrictions
system.cpu1.itb.prefetch_faults                     0                       # Number of TLB faults due to prefetch
system.cpu1.itb.read_accesses                       0                       # DTB read accesses
system.cpu1.itb.read_hits                           0                       # DTB read hits
system.cpu1.itb.read_misses                         0                       # DTB read misses
system.cpu1.itb.stage2_mmu.stage2_tlb.accesses            0                       # DTB accesses
system.cpu1.itb.stage2_mmu.stage2_tlb.align_faults            0                       # Number of TLB faults due to alignment restrictions
system.cpu1.itb.stage2_mmu.stage2_tlb.domain_faults            0                       # Number of TLB faults due to domain restrictions
system.cpu1.itb.stage2_mmu.stage2_tlb.flush_entries            0                       # Number of entries that have been flushed from TLB
system.cpu1.itb.stage2_mmu.stage2_tlb.flush_tlb            0                       # Number of times complete TLB was flushed
system.cpu1.itb.stage2_mmu.stage2_tlb.flush_tlb_asid            0                       # Number of times TLB was flushed by ASID
system.cpu1.itb.stage2_mmu.stage2_tlb.flush_tlb_mva            0                       # Number of times TLB was flushed by MVA
system.cpu1.itb.stage2_mmu.stage2_tlb.flush_tlb_mva_asid            0                       # Number of times TLB was flushed by MVA & ASID
system.cpu1.itb.stage2_mmu.stage2_tlb.hits            0                       # DTB hits
system.cpu1.itb.stage2_mmu.stage2_tlb.inst_accesses            0                       # ITB inst accesses
system.cpu1.itb.stage2_mmu.stage2_tlb.inst_hits            0                       # ITB inst hits
system.cpu1.itb.stage2_mmu.stage2_tlb.inst_misses            0                       # ITB inst misses
system.cpu1.itb.stage2_mmu.stage2_tlb.misses            0                       # DTB misses
system.cpu1.itb.stage2_mmu.stage2_tlb.perms_faults            0                       # Number of TLB faults due to permissions restrictions
system.cpu1.itb.stage2_mmu.stage2_tlb.prefetch_faults            0                       # Number of TLB faults due to prefetch
system.cpu1.itb.stage2_mmu.stage2_tlb.read_accesses            0                       # DTB read accesses
system.cpu1.itb.stage2_mmu.stage2_tlb.read_hits            0                       # DTB read hits
system.cpu1.itb.stage2_mmu.stage2_tlb.read_misses            0                       # DTB read misses
system.cpu1.itb.stage2_mmu.stage2_tlb.walker.walkRequestOrigin_Requested::Data            0                       # Table walker requests started/completed, data/inst
system.cpu1.itb.stage2_mmu.stage2_tlb.walker.walkRequestOrigin_Requested::Inst            0                       # Table walker requests started/completed, data/inst
system.cpu1.itb.stage2_mmu.stage2_tlb.walker.walkRequestOrigin_Requested::total            0                       # Table walker requests started/completed, data/inst
system.cpu1.itb.stage2_mmu.stage2_tlb.walker.walkRequestOrigin_Completed::Data            0                       # Table walker requests started/completed, data/inst
system.cpu1.itb.stage2_mmu.stage2_tlb.walker.walkRequestOrigin_Completed::Inst            0                       # Table walker requests started/completed, data/inst
system.cpu1.itb.stage2_mmu.stage2_tlb.walker.walkRequestOrigin_Completed::total            0                       # Table walker requests started/completed, data/inst
system.cpu1.itb.stage2_mmu.stage2_tlb.walker.walkRequestOrigin::total            0                       # Table walker requests started/completed, data/inst
system.cpu1.itb.stage2_mmu.stage2_tlb.walker.walks            0                       # Table walker walks requested
system.cpu1.itb.stage2_mmu.stage2_tlb.write_accesses            0                       # DTB write accesses
system.cpu1.itb.stage2_mmu.stage2_tlb.write_hits            0                       # DTB write hits
system.cpu1.itb.stage2_mmu.stage2_tlb.write_misses            0                       # DTB write misses
system.cpu1.itb.walker.walkRequestOrigin_Requested::Data            0                       # Table walker requests started/completed, data/inst
system.cpu1.itb.walker.walkRequestOrigin_Requested::Inst            0                       # Table walker requests started/completed, data/inst
system.cpu1.itb.walker.walkRequestOrigin_Requested::total            0                       # Table walker requests started/completed, data/inst
system.cpu1.itb.walker.walkRequestOrigin_Completed::Data            0                       # Table walker requests started/completed, data/inst
system.cpu1.itb.walker.walkRequestOrigin_Completed::Inst            0                       # Table walker requests started/completed, data/inst
system.cpu1.itb.walker.walkRequestOrigin_Completed::total            0                       # Table walker requests started/completed, data/inst
system.cpu1.itb.walker.walkRequestOrigin::total            0                       # Table walker requests started/completed, data/inst
system.cpu1.itb.walker.walks                        0                       # Table walker walks requested
system.cpu1.itb.write_accesses                      0                       # DTB write accesses
system.cpu1.itb.write_hits                          0                       # DTB write hits
system.cpu1.itb.write_misses                        0                       # DTB write misses
system.cpu1.numCycles                         1149551                       # number of cpu cycles simulated
system.cpu1.numFetchSuspends                        0                       # Number of times Execute suspended instruction fetching
system.cpu1.numWorkItemsCompleted                   0                       # number of work items this cpu completed
system.cpu1.numWorkItemsStarted                     0                       # number of work items this cpu started
system.cpu1.op_class_0::No_OpClass                  0      0.00%      0.00% # Class of committed instruction
system.cpu1.op_class_0::IntAlu                 859673     80.54%     80.54% # Class of committed instruction
system.cpu1.op_class_0::IntMult                 12478      1.17%     81.71% # Class of committed instruction
system.cpu1.op_class_0::IntDiv                      0      0.00%     81.71% # Class of committed instruction
system.cpu1.op_class_0::FloatAdd                    0      0.00%     81.71% # Class of committed instruction
system.cpu1.op_class_0::FloatCmp                    0      0.00%     81.71% # Class of committed instruction
system.cpu1.op_class_0::FloatCvt                    0      0.00%     81.71% # Class of committed instruction
system.cpu1.op_class_0::FloatMult                   0      0.00%     81.71% # Class of committed instruction
system.cpu1.op_class_0::FloatMultAcc                0      0.00%     81.71% # Class of committed instruction
system.cpu1.op_class_0::FloatDiv                    0      0.00%     81.71% # Class of committed instruction
system.cpu1.op_class_0::FloatMisc                   0      0.00%     81.71% # Class of committed instruction
system.cpu1.op_class_0::FloatSqrt                   0      0.00%     81.71% # Class of committed instruction
system.cpu1.op_class_0::SimdAdd                     0      0.00%     81.71% # Class of committed instruction
system.cpu1.op_class_0::SimdAddAcc                  0      0.00%     81.71% # Class of committed instruction
system.cpu1.op_class_0::SimdAlu                     0      0.00%     81.71% # Class of committed instruction
system.cpu1.op_class_0::SimdCmp                     0      0.00%     81.71% # Class of committed instruction
system.cpu1.op_class_0::SimdCvt                     0      0.00%     81.71% # Class of committed instruction
system.cpu1.op_class_0::SimdMisc                    0      0.00%     81.71% # Class of committed instruction
system.cpu1.op_class_0::SimdMult                    0      0.00%     81.71% # Class of committed instruction
system.cpu1.op_class_0::SimdMultAcc                 0      0.00%     81.71% # Class of committed instruction
system.cpu1.op_class_0::SimdShift                   0      0.00%     81.71% # Class of committed instruction
system.cpu1.op_class_0::SimdShiftAcc                0      0.00%     81.71% # Class of committed instruction
system.cpu1.op_class_0::SimdDiv                     0      0.00%     81.71% # Class of committed instruction
system.cpu1.op_class_0::SimdSqrt                    0      0.00%     81.71% # Class of committed instruction
system.cpu1.op_class_0::SimdFloatAdd                0      0.00%     81.71% # Class of committed instruction
system.cpu1.op_class_0::SimdFloatAlu                0      0.00%     81.71% # Class of committed instruction
system.cpu1.op_class_0::SimdFloatCmp                0      0.00%     81.71% # Class of committed instruction
system.cpu1.op_class_0::SimdFloatCvt                0      0.00%     81.71% # Class of committed instruction
system.cpu1.op_class_0::SimdFloatDiv                0      0.00%     81.71% # Class of committed instruction
system.cpu1.op_class_0::SimdFloatMisc               4      0.00%     81.71% # Class of committed instruction
system.cpu1.op_class_0::SimdFloatMult               0      0.00%     81.71% # Class of committed instruction
system.cpu1.op_class_0::SimdFloatMultAcc            0      0.00%     81.71% # Class of committed instruction
system.cpu1.op_class_0::SimdFloatSqrt               0      0.00%     81.71% # Class of committed instruction
system.cpu1.op_class_0::SimdReduceAdd               0      0.00%     81.71% # Class of committed instruction
system.cpu1.op_class_0::SimdReduceAlu               0      0.00%     81.71% # Class of committed instruction
system.cpu1.op_class_0::SimdReduceCmp               0      0.00%     81.71% # Class of committed instruction
system.cpu1.op_class_0::SimdFloatReduceAdd            0      0.00%     81.71% # Class of committed instruction
system.cpu1.op_class_0::SimdFloatReduceCmp            0      0.00%     81.71% # Class of committed instruction
system.cpu1.op_class_0::SimdAes                     0      0.00%     81.71% # Class of committed instruction
system.cpu1.op_class_0::SimdAesMix                  0      0.00%     81.71% # Class of committed instruction
system.cpu1.op_class_0::SimdSha1Hash                0      0.00%     81.71% # Class of committed instruction
system.cpu1.op_class_0::SimdSha1Hash2               0      0.00%     81.71% # Class of committed instruction
system.cpu1.op_class_0::SimdSha256Hash              0      0.00%     81.71% # Class of committed instruction
system.cpu1.op_class_0::SimdSha256Hash2             0      0.00%     81.71% # Class of committed instruction
system.cpu1.op_class_0::SimdShaSigma2               0      0.00%     81.71% # Class of committed instruction
system.cpu1.op_class_0::SimdShaSigma3               0      0.00%     81.71% # Class of committed instruction
system.cpu1.op_class_0::SimdPredAlu                 0      0.00%     81.71% # Class of committed instruction
system.cpu1.op_class_0::MemRead                121108     11.35%     93.05% # Class of committed instruction
system.cpu1.op_class_0::MemWrite                74136      6.95%    100.00% # Class of committed instruction
system.cpu1.op_class_0::FloatMemRead                0      0.00%    100.00% # Class of committed instruction
system.cpu1.op_class_0::FloatMemWrite               0      0.00%    100.00% # Class of committed instruction
system.cpu1.op_class_0::IprAccess                   0      0.00%    100.00% # Class of committed instruction
system.cpu1.op_class_0::InstPrefetch                0      0.00%    100.00% # Class of committed instruction
system.cpu1.op_class_0::total                 1067399                       # Class of committed instruction
system.cpu1.tickCycles                        1039285                       # Number of cycles that the object actually ticked
system.cpu1.workload.numSyscalls                   10                       # Number of system calls
system.membus.snoop_filter.hit_multi_requests            0                       # Number of requests hitting in the snoop filter with multiple (>1) holders of the requested data.
system.membus.snoop_filter.hit_multi_snoops            0                       # Number of snoops hitting in the snoop filter with multiple (>1) holders of the requested data.
system.membus.snoop_filter.hit_single_requests          124                       # Number of requests hitting in the snoop filter with a single holder of the requested data.
system.membus.snoop_filter.hit_single_snoops            0                       # Number of snoops hitting in the snoop filter with a single holder of the requested data.
system.membus.snoop_filter.tot_requests          2940                       # Total number of requests made to the snoop filter.
system.membus.snoop_filter.tot_snoops               0                       # Total number of snoops made to the snoop filter.
system.tol2bus.snoop_filter.hit_multi_requests           48                       # Number of requests hitting in the snoop filter with multiple (>1) holders of the requested data.
system.tol2bus.snoop_filter.hit_multi_snoops           16                       # Number of snoops hitting in the snoop filter with multiple (>1) holders of the requested data.
system.tol2bus.snoop_filter.hit_single_requests         2260                       # Number of requests hitting in the snoop filter with a single holder of the requested data.
system.tol2bus.snoop_filter.hit_single_snoops          540                       # Number of snoops hitting in the snoop filter with a single holder of the requested data.
system.tol2bus.snoop_filter.tot_requests         6473                       # Total number of requests made to the snoop filter.
system.tol2bus.snoop_filter.tot_snoops            556                       # Total number of snoops made to the snoop filter.
system.membus.pwrStateResidencyTicks::UNDEFINED    574775500                       # Cumulative time (in ticks) in various power states
system.membus.trans_dist::ReadResp               1273                       # Transaction distribution
system.membus.trans_dist::WritebackDirty           23                       # Transaction distribution
system.membus.trans_dist::CleanEvict              101                       # Transaction distribution
system.membus.trans_dist::ReadExReq              1543                       # Transaction distribution
system.membus.trans_dist::ReadExResp             1543                       # Transaction distribution
system.membus.trans_dist::ReadSharedReq          1273                       # Transaction distribution
system.membus.pkt_count_system.l2.mem_side::system.mem_ctrls.port         5756                       # Packet count per connected master and slave (bytes)
system.membus.pkt_count::total                   5756                       # Packet count per connected master and slave (bytes)
system.membus.pkt_size_system.l2.mem_side::system.mem_ctrls.port       181696                       # Cumulative packet size per connected master and slave (bytes)
system.membus.pkt_size::total                  181696                       # Cumulative packet size per connected master and slave (bytes)
system.membus.snoops                                0                       # Total snoops (count)
system.membus.snoopTraffic                          0                       # Total snoop traffic (bytes)
system.membus.snoop_fanout::samples              2816                       # Request fanout histogram
system.membus.snoop_fanout::mean                    0                       # Request fanout histogram
system.membus.snoop_fanout::stdev                   0                       # Request fanout histogram
system.membus.snoop_fanout::underflows              0      0.00%      0.00% # Request fanout histogram
system.membus.snoop_fanout::0                    2816    100.00%    100.00% # Request fanout histogram
system.membus.snoop_fanout::1                       0      0.00%    100.00% # Request fanout histogram
system.membus.snoop_fanout::overflows               0      0.00%    100.00% # Request fanout histogram
system.membus.snoop_fanout::min_value               0                       # Request fanout histogram
system.membus.snoop_fanout::max_value               0                       # Request fanout histogram
system.membus.snoop_fanout::total                2816                       # Request fanout histogram
system.membus.respLayer1.occupancy           14980500                       # Layer occupancy (ticks)
system.membus.respLayer1.utilization              2.6                       # Layer utilization (%)
system.membus.reqLayer0.occupancy             3414500                       # Layer occupancy (ticks)
system.membus.reqLayer0.utilization               0.6                       # Layer utilization (%)
system.voltage_domain.voltage                       1                       # Voltage in Volts
system.clk_domain.clock                          1000                       # Clock period in ticks
system.cpu0.pwrStateResidencyTicks::ON      574775500                       # Cumulative time (in ticks) in various power states
system.cpu0.icache.pwrStateResidencyTicks::UNDEFINED    574775500                       # Cumulative time (in ticks) in various power states
system.cpu0.icache.demand_hits::.cpu0.inst       213204                       # number of demand (read+write) hits
system.cpu0.icache.demand_hits::total          213204                       # number of demand (read+write) hits
system.cpu0.icache.overall_hits::.cpu0.inst       213204                       # number of overall hits
system.cpu0.icache.overall_hits::total         213204                       # number of overall hits
system.cpu0.icache.demand_misses::.cpu0.inst         1761                       # number of demand (read+write) misses
system.cpu0.icache.demand_misses::total          1761                       # number of demand (read+write) misses
system.cpu0.icache.overall_misses::.cpu0.inst         1761                       # number of overall misses
system.cpu0.icache.overall_misses::total         1761                       # number of overall misses
system.cpu0.icache.demand_miss_latency::.cpu0.inst     55250000                       # number of demand (read+write) miss cycles
system.cpu0.icache.demand_miss_latency::total     55250000                       # number of demand (read+write) miss cycles
system.cpu0.icache.overall_miss_latency::.cpu0.inst     55250000                       # number of overall miss cycles
system.cpu0.icache.overall_miss_latency::total     55250000                       # number of overall miss cycles
system.cpu0.icache.demand_accesses::.cpu0.inst       214965                       # number of demand (read+write) accesses
system.cpu0.icache.demand_accesses::total       214965                       # number of demand (read+write) accesses
system.cpu0.icache.overall_accesses::.cpu0.inst       214965                       # number of overall (read+write) accesses
system.cpu0.icache.overall_accesses::total       214965                       # number of overall (read+write) accesses
system.cpu0.icache.demand_miss_rate::.cpu0.inst     0.008192                       # miss rate for demand accesses
system.cpu0.icache.demand_miss_rate::total     0.008192                       # miss rate for demand accesses
system.cpu0.icache.overall_miss_rate::.cpu0.inst     0.008192                       # miss rate for overall accesses
system.cpu0.icache.overall_miss_rate::total     0.008192                       # miss rate for overall accesses
system.cpu0.icache.demand_avg_miss_latency::.cpu0.inst 31374.219194                       # average overall miss latency
system.cpu0.icache.demand_avg_miss_latency::total 31374.219194                       # average overall miss latency
system.cpu0.icache.overall_avg_miss_latency::.cpu0.inst 31374.219194                       # average overall miss latency
system.cpu0.icache.overall_avg_miss_latency::total 31374.219194                       # average overall miss latency
system.cpu0.icache.blocked_cycles::no_mshrs            0                       # number of cycles access was blocked
system.cpu0.icache.blocked_cycles::no_targets            0                       # number of cycles access was blocked
system.cpu0.icache.blocked::no_mshrs                0                       # number of cycles access was blocked
system.cpu0.icache.blocked::no_targets              0                       # number of cycles access was blocked
system.cpu0.icache.avg_blocked_cycles::no_mshrs          nan                       # average number of cycles each access was blocked
system.cpu0.icache.avg_blocked_cycles::no_targets          nan                       # average number of cycles each access was blocked
system.cpu0.icache.writebacks::.writebacks         1415                       # number of writebacks
system.cpu0.icache.writebacks::total             1415                       # number of writebacks
system.cpu0.icache.demand_mshr_misses::.cpu0.inst         1761                       # number of demand (read+write) MSHR misses
system.cpu0.icache.demand_mshr_misses::total         1761                       # number of demand (read+write) MSHR misses
system.cpu0.icache.overall_mshr_misses::.cpu0.inst         1761                       # number of overall MSHR misses
system.cpu0.icache.overall_mshr_misses::total         1761                       # number of overall MSHR misses
system.cpu0.icache.demand_mshr_miss_latency::.cpu0.inst     53489000                       # number of demand (read+write) MSHR miss cycles
system.cpu0.icache.demand_mshr_miss_latency::total     53489000                       # number of demand (read+write) MSHR miss cycles
system.cpu0.icache.overall_mshr_miss_latency::.cpu0.inst     53489000                       # number of overall MSHR miss cycles
system.cpu0.icache.overall_mshr_miss_latency::total     53489000                       # number of overall MSHR miss cycles
system.cpu0.icache.demand_mshr_miss_rate::.cpu0.inst     0.008192                       # mshr miss rate for demand accesses
system.cpu0.icache.demand_mshr_miss_rate::total     0.008192                       # mshr miss rate for demand accesses
system.cpu0.icache.overall_mshr_miss_rate::.cpu0.inst     0.008192                       # mshr miss rate for overall accesses
system.cpu0.icache.overall_mshr_miss_rate::total     0.008192                       # mshr miss rate for overall accesses
system.cpu0.icache.demand_avg_mshr_miss_latency::.cpu0.inst 30374.219194                       # average overall mshr miss latency
system.cpu0.icache.demand_avg_mshr_miss_latency::total 30374.219194                       # average overall mshr miss latency
system.cpu0.icache.overall_avg_mshr_miss_latency::.cpu0.inst 30374.219194                       # average overall mshr miss latency
system.cpu0.icache.overall_avg_mshr_miss_latency::total 30374.219194                       # average overall mshr miss latency
system.cpu0.icache.replacements                  1415                       # number of replacements
system.cpu0.icache.ReadReq_hits::.cpu0.inst       213204                       # number of ReadReq hits
system.cpu0.icache.ReadReq_hits::total         213204                       # number of ReadReq hits
system.cpu0.icache.ReadReq_misses::.cpu0.inst         1761                       # number of ReadReq misses
system.cpu0.icache.ReadReq_misses::total         1761                       # number of ReadReq misses
system.cpu0.icache.ReadReq_miss_latency::.cpu0.inst     55250000                       # number of ReadReq miss cycles
system.cpu0.icache.ReadReq_miss_latency::total     55250000                       # number of ReadReq miss cycles
system.cpu0.icache.ReadReq_accesses::.cpu0.inst       214965                       # number of ReadReq accesses(hits+misses)
system.cpu0.icache.ReadReq_accesses::total       214965                       # number of ReadReq accesses(hits+misses)
system.cpu0.icache.ReadReq_miss_rate::.cpu0.inst     0.008192                       # miss rate for ReadReq accesses
system.cpu0.icache.ReadReq_miss_rate::total     0.008192                       # miss rate for ReadReq accesses
system.cpu0.icache.ReadReq_avg_miss_latency::.cpu0.inst 31374.219194                       # average ReadReq miss latency
system.cpu0.icache.ReadReq_avg_miss_latency::total 31374.219194                       # average ReadReq miss latency
system.cpu0.icache.ReadReq_mshr_misses::.cpu0.inst         1761                       # number of ReadReq MSHR misses
system.cpu0.icache.ReadReq_mshr_misses::total         1761                       # number of ReadReq MSHR misses
system.cpu0.icache.ReadReq_mshr_miss_latency::.cpu0.inst     53489000                       # number of ReadReq MSHR miss cycles
system.cpu0.icache.ReadReq_mshr_miss_latency::total     53489000                       # number of ReadReq MSHR miss cycles
system.cpu0.icache.ReadReq_mshr_miss_rate::.cpu0.inst     0.008192                       # mshr miss rate for ReadReq accesses
system.cpu0.icache.ReadReq_mshr_miss_rate::total     0.008192                       # mshr miss rate for ReadReq accesses
system.cpu0.icache.ReadReq_avg_mshr_miss_latency::.cpu0.inst 30374.219194                       # average ReadReq mshr miss latency
system.cpu0.icache.ReadReq_avg_mshr_miss_latency::total 30374.219194                       # average ReadReq mshr miss latency
system.cpu0.icache.tags.pwrStateResidencyTicks::UNDEFINED    574775500                       # Cumulative time (in ticks) in various power states
system.cpu0.icache.tags.tagsinuse          333.427899                       # Cycle average of tags in use
system.cpu0.icache.tags.total_refs             214965                       # Total number of references to valid blocks.
system.cpu0.icache.tags.sampled_refs             1761                       # Sample count of references to valid blocks.
system.cpu0.icache.tags.avg_refs           122.069847                       # Average number of references to valid blocks.
system.cpu0.icache.tags.warmup_cycle            87500                       # Cycle when the warmup percentage was hit.
system.cpu0.icache.tags.occ_blocks::.cpu0.inst   333.427899                       # Average occupied blocks per requestor
system.cpu0.icache.tags.occ_percent::.cpu0.inst     0.651226                       # Average percentage of cache occupancy
system.cpu0.icache.tags.occ_percent::total     0.651226                       # Average percentage of cache occupancy
system.cpu0.icache.tags.occ_task_id_blocks::1024          346                       # Occupied blocks per task id
system.cpu0.icache.tags.age_task_id_blocks_1024::0            2                       # Occupied blocks per task id
system.cpu0.icache.tags.age_task_id_blocks_1024::2          344                       # Occupied blocks per task id
system.cpu0.icache.tags.occ_task_id_percent::1024     0.675781                       # Percentage of cache occupancy per task id
system.cpu0.icache.tags.tag_accesses           431691                       # Number of tag accesses
system.cpu0.icache.tags.data_accesses          431691                       # Number of data accesses
system.cpu0.dtb.walker.pwrStateResidencyTicks::UNDEFINED    574775500                       # Cumulative time (in ticks) in various power states
system.cpu0.dtb.stage2_mmu.stage2_tlb.walker.pwrStateResidencyTicks::UNDEFINED    574775500                       # Cumulative time (in ticks) in various power states
system.cpu0.dcache.pwrStateResidencyTicks::UNDEFINED    574775500                       # Cumulative time (in ticks) in various power states
system.cpu0.dcache.demand_hits::.cpu0.data       276029                       # number of demand (read+write) hits
system.cpu0.dcache.demand_hits::total          276029                       # number of demand (read+write) hits
system.cpu0.dcache.overall_hits::.cpu0.data       276051                       # number of overall hits
system.cpu0.dcache.overall_hits::total         276051                       # number of overall hits
system.cpu0.dcache.demand_misses::.cpu0.data         2801                       # number of demand (read+write) misses
system.cpu0.dcache.demand_misses::total          2801                       # number of demand (read+write) misses
system.cpu0.dcache.overall_misses::.cpu0.data         2815                       # number of overall misses
system.cpu0.dcache.overall_misses::total         2815                       # number of overall misses
system.cpu0.dcache.demand_miss_latency::.cpu0.data    220017000                       # number of demand (read+write) miss cycles
system.cpu0.dcache.demand_miss_latency::total    220017000                       # number of demand (read+write) miss cycles
system.cpu0.dcache.overall_miss_latency::.cpu0.data    220017000                       # number of overall miss cycles
system.cpu0.dcache.overall_miss_latency::total    220017000                       # number of overall miss cycles
system.cpu0.dcache.demand_accesses::.cpu0.data       278830                       # number of demand (read+write) accesses
system.cpu0.dcache.demand_accesses::total       278830                       # number of demand (read+write) accesses
system.cpu0.dcache.overall_accesses::.cpu0.data       278866                       # number of overall (read+write) accesses
system.cpu0.dcache.overall_accesses::total       278866                       # number of overall (read+write) accesses
system.cpu0.dcache.demand_miss_rate::.cpu0.data     0.010046                       # miss rate for demand accesses
system.cpu0.dcache.demand_miss_rate::total     0.010046                       # miss rate for demand accesses
system.cpu0.dcache.overall_miss_rate::.cpu0.data     0.010094                       # miss rate for overall accesses
system.cpu0.dcache.overall_miss_rate::total     0.010094                       # miss rate for overall accesses
system.cpu0.dcache.demand_avg_miss_latency::.cpu0.data 78549.446626                       # average overall miss latency
system.cpu0.dcache.demand_avg_miss_latency::total 78549.446626                       # average overall miss latency
system.cpu0.dcache.overall_avg_miss_latency::.cpu0.data 78158.792185                       # average overall miss latency
system.cpu0.dcache.overall_avg_miss_latency::total 78158.792185                       # average overall miss latency
system.cpu0.dcache.blocked_cycles::no_mshrs            0                       # number of cycles access was blocked
system.cpu0.dcache.blocked_cycles::no_targets            0                       # number of cycles access was blocked
system.cpu0.dcache.blocked::no_mshrs                0                       # number of cycles access was blocked
system.cpu0.dcache.blocked::no_targets              0                       # number of cycles access was blocked
system.cpu0.dcache.avg_blocked_cycles::no_mshrs          nan                       # average number of cycles each access was blocked
system.cpu0.dcache.avg_blocked_cycles::no_targets          nan                       # average number of cycles each access was blocked
system.cpu0.dcache.writebacks::.writebacks          506                       # number of writebacks
system.cpu0.dcache.writebacks::total              506                       # number of writebacks
system.cpu0.dcache.demand_mshr_hits::.cpu0.data         1212                       # number of demand (read+write) MSHR hits
system.cpu0.dcache.demand_mshr_hits::total         1212                       # number of demand (read+write) MSHR hits
system.cpu0.dcache.overall_mshr_hits::.cpu0.data         1212                       # number of overall MSHR hits
system.cpu0.dcache.overall_mshr_hits::total         1212                       # number of overall MSHR hits
system.cpu0.dcache.demand_mshr_misses::.cpu0.data         1589                       # number of demand (read+write) MSHR misses
system.cpu0.dcache.demand_mshr_misses::total         1589                       # number of demand (read+write) MSHR misses
system.cpu0.dcache.overall_mshr_misses::.cpu0.data         1599                       # number of overall MSHR misses
system.cpu0.dcache.overall_mshr_misses::total         1599                       # number of overall MSHR misses
system.cpu0.dcache.demand_mshr_miss_latency::.cpu0.data    124493000                       # number of demand (read+write) MSHR miss cycles
system.cpu0.dcache.demand_mshr_miss_latency::total    124493000                       # number of demand (read+write) MSHR miss cycles
system.cpu0.dcache.overall_mshr_miss_latency::.cpu0.data    125451000                       # number of overall MSHR miss cycles
system.cpu0.dcache.overall_mshr_miss_latency::total    125451000                       # number of overall MSHR miss cycles
system.cpu0.dcache.demand_mshr_miss_rate::.cpu0.data     0.005699                       # mshr miss rate for demand accesses
system.cpu0.dcache.demand_mshr_miss_rate::total     0.005699                       # mshr miss rate for demand accesses
system.cpu0.dcache.overall_mshr_miss_rate::.cpu0.data     0.005734                       # mshr miss rate for overall accesses
system.cpu0.dcache.overall_mshr_miss_rate::total     0.005734                       # mshr miss rate for overall accesses
system.cpu0.dcache.demand_avg_mshr_miss_latency::.cpu0.data 78346.758968                       # average overall mshr miss latency
system.cpu0.dcache.demand_avg_mshr_miss_latency::total 78346.758968                       # average overall mshr miss latency
system.cpu0.dcache.overall_avg_mshr_miss_latency::.cpu0.data 78455.909944                       # average overall mshr miss latency
system.cpu0.dcache.overall_avg_mshr_miss_latency::total 78455.909944                       # average overall mshr miss latency
system.cpu0.dcache.replacements                   595                       # number of replacements
system.cpu0.dcache.ReadReq_hits::.cpu0.data       155833                       # number of ReadReq hits
system.cpu0.dcache.ReadReq_hits::total         155833                       # number of ReadReq hits
system.cpu0.dcache.ReadReq_misses::.cpu0.data          163                       # number of ReadReq misses
system.cpu0.dcache.ReadReq_misses::total          163                       # number of ReadReq misses
system.cpu0.dcache.ReadReq_miss_latency::.cpu0.data     12660500                       # number of ReadReq miss cycles
system.cpu0.dcache.ReadReq_miss_latency::total     12660500                       # number of ReadReq miss cycles
system.cpu0.dcache.ReadReq_accesses::.cpu0.data       155996                       # number of ReadReq accesses(hits+misses)
system.cpu0.dcache.ReadReq_accesses::total       155996                       # number of ReadReq accesses(hits+misses)
system.cpu0.dcache.ReadReq_miss_rate::.cpu0.data     0.001045                       # miss rate for ReadReq accesses
system.cpu0.dcache.ReadReq_miss_rate::total     0.001045                       # miss rate for ReadReq accesses
system.cpu0.dcache.ReadReq_avg_miss_latency::.cpu0.data 77671.779141                       # average ReadReq miss latency
system.cpu0.dcache.ReadReq_avg_miss_latency::total 77671.779141                       # average ReadReq miss latency
system.cpu0.dcache.ReadReq_mshr_hits::.cpu0.data           10                       # number of ReadReq MSHR hits
system.cpu0.dcache.ReadReq_mshr_hits::total           10                       # number of ReadReq MSHR hits
system.cpu0.dcache.ReadReq_mshr_misses::.cpu0.data          153                       # number of ReadReq MSHR misses
system.cpu0.dcache.ReadReq_mshr_misses::total          153                       # number of ReadReq MSHR misses
system.cpu0.dcache.ReadReq_mshr_miss_latency::.cpu0.data     11699500                       # number of ReadReq MSHR miss cycles
system.cpu0.dcache.ReadReq_mshr_miss_latency::total     11699500                       # number of ReadReq MSHR miss cycles
system.cpu0.dcache.ReadReq_mshr_miss_rate::.cpu0.data     0.000981                       # mshr miss rate for ReadReq accesses
system.cpu0.dcache.ReadReq_mshr_miss_rate::total     0.000981                       # mshr miss rate for ReadReq accesses
system.cpu0.dcache.ReadReq_avg_mshr_miss_latency::.cpu0.data 76467.320261                       # average ReadReq mshr miss latency
system.cpu0.dcache.ReadReq_avg_mshr_miss_latency::total 76467.320261                       # average ReadReq mshr miss latency
system.cpu0.dcache.WriteReq_hits::.cpu0.data       120196                       # number of WriteReq hits
system.cpu0.dcache.WriteReq_hits::total        120196                       # number of WriteReq hits
system.cpu0.dcache.WriteReq_misses::.cpu0.data         2638                       # number of WriteReq misses
system.cpu0.dcache.WriteReq_misses::total         2638                       # number of WriteReq misses
system.cpu0.dcache.WriteReq_miss_latency::.cpu0.data    207356500                       # number of WriteReq miss cycles
system.cpu0.dcache.WriteReq_miss_latency::total    207356500                       # number of WriteReq miss cycles
system.cpu0.dcache.WriteReq_accesses::.cpu0.data       122834                       # number of WriteReq accesses(hits+misses)
system.cpu0.dcache.WriteReq_accesses::total       122834                       # number of WriteReq accesses(hits+misses)
system.cpu0.dcache.WriteReq_miss_rate::.cpu0.data     0.021476                       # miss rate for WriteReq accesses
system.cpu0.dcache.WriteReq_miss_rate::total     0.021476                       # miss rate for WriteReq accesses
system.cpu0.dcache.WriteReq_avg_miss_latency::.cpu0.data 78603.677028                       # average WriteReq miss latency
system.cpu0.dcache.WriteReq_avg_miss_latency::total 78603.677028                       # average WriteReq miss latency
system.cpu0.dcache.WriteReq_mshr_hits::.cpu0.data         1202                       # number of WriteReq MSHR hits
system.cpu0.dcache.WriteReq_mshr_hits::total         1202                       # number of WriteReq MSHR hits
system.cpu0.dcache.WriteReq_mshr_misses::.cpu0.data         1436                       # number of WriteReq MSHR misses
system.cpu0.dcache.WriteReq_mshr_misses::total         1436                       # number of WriteReq MSHR misses
system.cpu0.dcache.WriteReq_mshr_miss_latency::.cpu0.data    112793500                       # number of WriteReq MSHR miss cycles
system.cpu0.dcache.WriteReq_mshr_miss_latency::total    112793500                       # number of WriteReq MSHR miss cycles
system.cpu0.dcache.WriteReq_mshr_miss_rate::.cpu0.data     0.011691                       # mshr miss rate for WriteReq accesses
system.cpu0.dcache.WriteReq_mshr_miss_rate::total     0.011691                       # mshr miss rate for WriteReq accesses
system.cpu0.dcache.WriteReq_avg_mshr_miss_latency::.cpu0.data 78547.005571                       # average WriteReq mshr miss latency
system.cpu0.dcache.WriteReq_avg_mshr_miss_latency::total 78547.005571                       # average WriteReq mshr miss latency
system.cpu0.dcache.SoftPFReq_hits::.cpu0.data           22                       # number of SoftPFReq hits
system.cpu0.dcache.SoftPFReq_hits::total           22                       # number of SoftPFReq hits
system.cpu0.dcache.SoftPFReq_misses::.cpu0.data           14                       # number of SoftPFReq misses
system.cpu0.dcache.SoftPFReq_misses::total           14                       # number of SoftPFReq misses
system.cpu0.dcache.SoftPFReq_accesses::.cpu0.data           36                       # number of SoftPFReq accesses(hits+misses)
system.cpu0.dcache.SoftPFReq_accesses::total           36                       # number of SoftPFReq accesses(hits+misses)
system.cpu0.dcache.SoftPFReq_miss_rate::.cpu0.data     0.388889                       # miss rate for SoftPFReq accesses
system.cpu0.dcache.SoftPFReq_miss_rate::total     0.388889                       # miss rate for SoftPFReq accesses
system.cpu0.dcache.SoftPFReq_mshr_misses::.cpu0.data           10                       # number of SoftPFReq MSHR misses
system.cpu0.dcache.SoftPFReq_mshr_misses::total           10                       # number of SoftPFReq MSHR misses
system.cpu0.dcache.SoftPFReq_mshr_miss_latency::.cpu0.data       958000                       # number of SoftPFReq MSHR miss cycles
system.cpu0.dcache.SoftPFReq_mshr_miss_latency::total       958000                       # number of SoftPFReq MSHR miss cycles
system.cpu0.dcache.SoftPFReq_mshr_miss_rate::.cpu0.data     0.277778                       # mshr miss rate for SoftPFReq accesses
system.cpu0.dcache.SoftPFReq_mshr_miss_rate::total     0.277778                       # mshr miss rate for SoftPFReq accesses
system.cpu0.dcache.SoftPFReq_avg_mshr_miss_latency::.cpu0.data        95800                       # average SoftPFReq mshr miss latency
system.cpu0.dcache.SoftPFReq_avg_mshr_miss_latency::total        95800                       # average SoftPFReq mshr miss latency
system.cpu0.dcache.LoadLockedReq_hits::.cpu0.data          881                       # number of LoadLockedReq hits
system.cpu0.dcache.LoadLockedReq_hits::total          881                       # number of LoadLockedReq hits
system.cpu0.dcache.LoadLockedReq_misses::.cpu0.data            2                       # number of LoadLockedReq misses
system.cpu0.dcache.LoadLockedReq_misses::total            2                       # number of LoadLockedReq misses
system.cpu0.dcache.LoadLockedReq_miss_latency::.cpu0.data       177000                       # number of LoadLockedReq miss cycles
system.cpu0.dcache.LoadLockedReq_miss_latency::total       177000                       # number of LoadLockedReq miss cycles
system.cpu0.dcache.LoadLockedReq_accesses::.cpu0.data          883                       # number of LoadLockedReq accesses(hits+misses)
system.cpu0.dcache.LoadLockedReq_accesses::total          883                       # number of LoadLockedReq accesses(hits+misses)
system.cpu0.dcache.LoadLockedReq_miss_rate::.cpu0.data     0.002265                       # miss rate for LoadLockedReq accesses
system.cpu0.dcache.LoadLockedReq_miss_rate::total     0.002265                       # miss rate for LoadLockedReq accesses
system.cpu0.dcache.LoadLockedReq_avg_miss_latency::.cpu0.data        88500                       # average LoadLockedReq miss latency
system.cpu0.dcache.LoadLockedReq_avg_miss_latency::total        88500                       # average LoadLockedReq miss latency
system.cpu0.dcache.LoadLockedReq_mshr_misses::.cpu0.data            2                       # number of LoadLockedReq MSHR misses
system.cpu0.dcache.LoadLockedReq_mshr_misses::total            2                       # number of LoadLockedReq MSHR misses
system.cpu0.dcache.LoadLockedReq_mshr_miss_latency::.cpu0.data       175000                       # number of LoadLockedReq MSHR miss cycles
system.cpu0.dcache.LoadLockedReq_mshr_miss_latency::total       175000                       # number of LoadLockedReq MSHR miss cycles
[...]
system.mem_ctrls.wrQLenPdf::33                      0                       # What write queue length does an incoming req see
system.mem_ctrls.wrQLenPdf::34                      0                       # What write queue length does an incoming req see
system.mem_ctrls.wrQLenPdf::35                      0                       # What write queue length does an incoming req see
system.mem_ctrls.wrQLenPdf::36                      0                       # What write queue length does an incoming req see
system.mem_ctrls.wrQLenPdf::37                      0                       # What write queue length does an incoming req see
system.mem_ctrls.wrQLenPdf::38                      0                       # What write queue length does an incoming req see
system.mem_ctrls.wrQLenPdf::39                      0                       # What write queue length does an incoming req see
system.mem_ctrls.wrQLenPdf::40                      0                       # What write queue length does an incoming req see
system.mem_ctrls.wrQLenPdf::41                      0                       # What write queue length does an incoming req see
system.mem_ctrls.wrQLenPdf::42                      0                       # What write queue length does an incoming req see
system.mem_ctrls.wrQLenPdf::43                      0                       # What write queue length does an incoming req see
system.mem_ctrls.wrQLenPdf::44                      0                       # What write queue length does an incoming req see
system.mem_ctrls.wrQLenPdf::45                      0                       # What write queue length does an incoming req see
system.mem_ctrls.wrQLenPdf::46                      0                       # What write queue length does an incoming req see
system.mem_ctrls.wrQLenPdf::47                      0                       # What write queue length does an incoming req see
system.mem_ctrls.wrQLenPdf::48                      0                       # What write queue length does an incoming req see
system.mem_ctrls.wrQLenPdf::49                      0                       # What write queue length does an incoming req see
system.mem_ctrls.wrQLenPdf::50                      0                       # What write queue length does an incoming req see
system.mem_ctrls.wrQLenPdf::51                      0                       # What write queue length does an incoming req see
system.mem_ctrls.wrQLenPdf::52                      0                       # What write queue length does an incoming req see
system.mem_ctrls.wrQLenPdf::53                      0                       # What write queue length does an incoming req see
system.mem_ctrls.wrQLenPdf::54                      0                       # What write queue length does an incoming req see
system.mem_ctrls.wrQLenPdf::55                      0                       # What write queue length does an incoming req see
system.mem_ctrls.wrQLenPdf::56                      0                       # What write queue length does an incoming req see
system.mem_ctrls.wrQLenPdf::57                      0                       # What write queue length does an incoming req see
system.mem_ctrls.wrQLenPdf::58                      0                       # What write queue length does an incoming req see
system.mem_ctrls.wrQLenPdf::59                      0                       # What write queue length does an incoming req see
system.mem_ctrls.wrQLenPdf::60                      0                       # What write queue length does an incoming req see
system.mem_ctrls.wrQLenPdf::61                      0                       # What write queue length does an incoming req see
system.mem_ctrls.wrQLenPdf::62                      0                       # What write queue length does an incoming req see
system.mem_ctrls.wrQLenPdf::63                      0                       # What write queue length does an incoming req see
system.mem_ctrls.bytesPerActivate::samples          662                       # Bytes accessed per row activation
system.mem_ctrls.bytesPerActivate::mean    270.598187                       # Bytes accessed per row activation
system.mem_ctrls.bytesPerActivate::gmean   185.965213                       # Bytes accessed per row activation
system.mem_ctrls.bytesPerActivate::stdev   231.044550                       # Bytes accessed per row activation
system.mem_ctrls.bytesPerActivate::0-127          219     33.08%     33.08% # Bytes accessed per row activation
system.mem_ctrls.bytesPerActivate::128-255          130     19.64%     52.72% # Bytes accessed per row activation
system.mem_ctrls.bytesPerActivate::256-383          117     17.67%     70.39% # Bytes accessed per row activation
system.mem_ctrls.bytesPerActivate::384-511           85     12.84%     83.23% # Bytes accessed per row activation
system.mem_ctrls.bytesPerActivate::512-639           54      8.16%     91.39% # Bytes accessed per row activation
system.mem_ctrls.bytesPerActivate::640-767           32      4.83%     96.22% # Bytes accessed per row activation
system.mem_ctrls.bytesPerActivate::768-895            2      0.30%     96.53% # Bytes accessed per row activation
system.mem_ctrls.bytesPerActivate::896-1023            6      0.91%     97.43% # Bytes accessed per row activation
system.mem_ctrls.bytesPerActivate::1024-1151           17      2.57%    100.00% # Bytes accessed per row activation
system.mem_ctrls.bytesPerActivate::total          662                       # Bytes accessed per row activation
system.mem_ctrls.bytesReadDRAM                 180224                       # Total number of bytes read from DRAM
system.mem_ctrls.bytesReadWrQ                       0                       # Total number of bytes read from write queue
system.mem_ctrls.bytesWritten                       0                       # Total number of bytes written to DRAM
system.mem_ctrls.bytesReadSys                  180224                       # Total read bytes from the system interface side
system.mem_ctrls.bytesWrittenSys                 1472                       # Total written bytes from the system interface side
system.mem_ctrls.avgRdBW                       313.56                       # Average DRAM read bandwidth in MiByte/s
system.mem_ctrls.avgWrBW                         0.00                       # Average achieved write bandwidth in MiByte/s
system.mem_ctrls.avgRdBWSys                    313.56                       # Average system read bandwidth in MiByte/s
system.mem_ctrls.avgWrBWSys                      2.56                       # Average system write bandwidth in MiByte/s
system.mem_ctrls.peakBW                      12800.00                       # Theoretical peak bandwidth in MiByte/s
system.mem_ctrls.busUtil                         2.45                       # Data bus utilization in percentage
system.mem_ctrls.busUtilRead                     2.45                       # Data bus utilization in percentage for reads
system.mem_ctrls.busUtilWrite                    0.00                       # Data bus utilization in percentage for writes
system.mem_ctrls.totGap                     573818000                       # Total gap between requests
system.mem_ctrls.avgGap                     202119.76                       # Average gap between requests
system.mem_ctrls.masterReadBytes::.cpu0.inst        29312                       # Per-master bytes read from memory
system.mem_ctrls.masterReadBytes::.cpu0.data        99904                       # Per-master bytes read from memory
system.mem_ctrls.masterReadBytes::.cpu1.inst        36160                       # Per-master bytes read from memory
system.mem_ctrls.masterReadBytes::.cpu1.data        14848                       # Per-master bytes read from memory
system.mem_ctrls.masterReadRate::.cpu0.inst 50997302.425033777952                       # Per-master bytes read from memory rate (Bytes/sec)
system.mem_ctrls.masterReadRate::.cpu0.data 173813949.968291968107                       # Per-master bytes read from memory rate (Bytes/sec)
system.mem_ctrls.masterReadRate::.cpu1.inst 62911519.367126822472                       # Per-master bytes read from memory rate (Bytes/sec)
system.mem_ctrls.masterReadRate::.cpu1.data 25832694.678183048964                       # Per-master bytes read from memory rate (Bytes/sec)
system.mem_ctrls.masterReadAccesses::.cpu0.inst          458                       # Per-master read serviced memory accesses
system.mem_ctrls.masterReadAccesses::.cpu0.data         1561                       # Per-master read serviced memory accesses
system.mem_ctrls.masterReadAccesses::.cpu1.inst          565                       # Per-master read serviced memory accesses
system.mem_ctrls.masterReadAccesses::.cpu1.data          232                       # Per-master read serviced memory accesses
system.mem_ctrls.masterWriteAccesses::.writebacks           23                       # Per-master write serviced memory accesses
system.mem_ctrls.masterReadTotalLat::.cpu0.inst     13793500                       # Per-master read total memory access latency
system.mem_ctrls.masterReadTotalLat::.cpu0.data     42878250                       # Per-master read total memory access latency
system.mem_ctrls.masterReadTotalLat::.cpu1.inst     16495500                       # Per-master read total memory access latency
system.mem_ctrls.masterReadTotalLat::.cpu1.data      7457250                       # Per-master read total memory access latency
system.mem_ctrls.masterReadAvgLat::.cpu0.inst     30116.81                       # Per-master read average memory access latency
system.mem_ctrls.masterReadAvgLat::.cpu0.data     27468.45                       # Per-master read average memory access latency
system.mem_ctrls.masterReadAvgLat::.cpu1.inst     29195.58                       # Per-master read average memory access latency
system.mem_ctrls.masterReadAvgLat::.cpu1.data     32143.32                       # Per-master read average memory access latency
system.mem_ctrls.masterWriteAvgLat::.writebacks         0.00                       # Per-master write average memory access latency
system.mem_ctrls.pageHitRate                    75.73                       # Row buffer hit rate, read and write combined
system.mem_ctrls.rank1.actEnergy              2249100                       # Energy for activate commands per rank (pJ)
system.mem_ctrls.rank1.preEnergy              1187835                       # Energy for precharge commands per rank (pJ)
system.mem_ctrls.rank1.readEnergy             7568400                       # Energy for read commands per rank (pJ)
system.mem_ctrls.rank1.writeEnergy                  0                       # Energy for write commands per rank (pJ)
system.mem_ctrls.rank1.refreshEnergy     44868720.000000                       # Energy for refresh commands per rank (pJ)
system.mem_ctrls.rank1.actBackEnergy        242946540                       # Energy for active background per rank (pJ)
system.mem_ctrls.rank1.preBackEnergy         16127520                       # Energy for precharge background per rank (pJ)
system.mem_ctrls.rank1.actPowerDownEnergy            0                       # Energy for active power-down per rank (pJ)
system.mem_ctrls.rank1.prePowerDownEnergy            0                       # Energy for precharge power-down per rank (pJ)
system.mem_ctrls.rank1.selfRefreshEnergy            0                       # Energy for self refresh per rank (pJ)
system.mem_ctrls.rank1.totalEnergy          314948115                       # Total energy per rank (pJ)
system.mem_ctrls.rank1.averagePower        547.949791                       # Core power per rank (mW)
system.mem_ctrls.rank1.totalIdleTime                0                       # Total Idle time Per DRAM Rank
system.mem_ctrls.rank1.memoryStateTime::IDLE     39956500                       # Time in different power states
system.mem_ctrls.rank1.memoryStateTime::REF     18980000                       # Time in different power states
system.mem_ctrls.rank1.memoryStateTime::SREF            0                       # Time in different power states
system.mem_ctrls.rank1.memoryStateTime::PRE_PDN            0                       # Time in different power states
system.mem_ctrls.rank1.memoryStateTime::ACT    515839000                       # Time in different power states
system.mem_ctrls.rank1.memoryStateTime::ACT_PDN            0                       # Time in different power states
system.mem_ctrls.rank0.actEnergy              2506140                       # Energy for activate commands per rank (pJ)
system.mem_ctrls.rank0.preEnergy              1324455                       # Energy for precharge commands per rank (pJ)
system.mem_ctrls.rank0.readEnergy            12537840                       # Energy for read commands per rank (pJ)
system.mem_ctrls.rank0.writeEnergy                  0                       # Energy for write commands per rank (pJ)
system.mem_ctrls.rank0.refreshEnergy     44868720.000000                       # Energy for refresh commands per rank (pJ)
system.mem_ctrls.rank0.actBackEnergy        253981740                       # Energy for active background per rank (pJ)
system.mem_ctrls.rank0.preBackEnergy          6834720                       # Energy for precharge background per rank (pJ)
system.mem_ctrls.rank0.actPowerDownEnergy            0                       # Energy for active power-down per rank (pJ)
system.mem_ctrls.rank0.prePowerDownEnergy            0                       # Energy for precharge power-down per rank (pJ)
system.mem_ctrls.rank0.selfRefreshEnergy            0                       # Energy for self refresh per rank (pJ)
system.mem_ctrls.rank0.totalEnergy          322053615                       # Total energy per rank (pJ)
system.mem_ctrls.rank0.averagePower        560.312009                       # Core power per rank (mW)
system.mem_ctrls.rank0.totalIdleTime                0                       # Total Idle time Per DRAM Rank
system.mem_ctrls.rank0.memoryStateTime::IDLE     15689000                       # Time in different power states
system.mem_ctrls.rank0.memoryStateTime::REF     18980000                       # Time in different power states
system.mem_ctrls.rank0.memoryStateTime::SREF            0                       # Time in different power states
system.mem_ctrls.rank0.memoryStateTime::PRE_PDN            0                       # Time in different power states
system.mem_ctrls.rank0.memoryStateTime::ACT    540106500                       # Time in different power states
system.mem_ctrls.rank0.memoryStateTime::ACT_PDN            0                       # Time in different power states
system.cpu_clk_domain.clock                       500                       # Clock period in ticks
system.tol2bus.pwrStateResidencyTicks::UNDEFINED    574775500                       # Cumulative time (in ticks) in various power states
system.tol2bus.trans_dist::ReadResp              2684                       # Transaction distribution
system.tol2bus.trans_dist::WritebackDirty          532                       # Transaction distribution
system.tol2bus.trans_dist::WritebackClean         1635                       # Transaction distribution
system.tol2bus.trans_dist::CleanEvict             722                       # Transaction distribution
system.tol2bus.trans_dist::ReadExReq             1552                       # Transaction distribution
system.tol2bus.trans_dist::ReadExResp            1552                       # Transaction distribution
system.tol2bus.trans_dist::ReadCleanReq          2375                       # Transaction distribution
system.tol2bus.trans_dist::ReadSharedReq          309                       # Transaction distribution
system.tol2bus.pkt_count_system.cpu0.icache.mem_side::system.l2.cpu_side         4937                       # Packet count per connected master and slave (bytes)
system.tol2bus.pkt_count_system.cpu0.dcache.mem_side::system.l2.cpu_side         3797                       # Packet count per connected master and slave (bytes)
system.tol2bus.pkt_count_system.cpu1.icache.mem_side::system.l2.cpu_side         1448                       # Packet count per connected master and slave (bytes)
system.tol2bus.pkt_count_system.cpu1.dcache.mem_side::system.l2.cpu_side          527                       # Packet count per connected master and slave (bytes)
system.tol2bus.pkt_count::total                 10709                       # Packet count per connected master and slave (bytes)
system.tol2bus.pkt_size_system.cpu0.icache.mem_side::system.l2.cpu_side       203264                       # Cumulative packet size per connected master and slave (bytes)
system.tol2bus.pkt_size_system.cpu0.dcache.mem_side::system.l2.cpu_side       134848                       # Cumulative packet size per connected master and slave (bytes)
system.tol2bus.pkt_size_system.cpu1.icache.mem_side::system.l2.cpu_side        53376                       # Cumulative packet size per connected master and slave (bytes)
system.tol2bus.pkt_size_system.cpu1.dcache.mem_side::system.l2.cpu_side        16832                       # Cumulative packet size per connected master and slave (bytes)
system.tol2bus.pkt_size::total                 408320                       # Cumulative packet size per connected master and slave (bytes)
system.tol2bus.snoops                             652                       # Total snoops (count)
system.tol2bus.snoopTraffic                      1472                       # Total snoop traffic (bytes)
system.tol2bus.snoop_fanout::samples             4888                       # Request fanout histogram
system.tol2bus.snoop_fanout::mean            0.131547                       # Request fanout histogram
system.tol2bus.snoop_fanout::stdev           0.347582                       # Request fanout histogram
system.tol2bus.snoop_fanout::underflows             0      0.00%      0.00% # Request fanout histogram
system.tol2bus.snoop_fanout::0                   4261     87.17%     87.17% # Request fanout histogram
system.tol2bus.snoop_fanout::1                    611     12.50%     99.67% # Request fanout histogram
system.tol2bus.snoop_fanout::2                     16      0.33%    100.00% # Request fanout histogram
system.tol2bus.snoop_fanout::3                      0      0.00%    100.00% # Request fanout histogram
system.tol2bus.snoop_fanout::4                      0      0.00%    100.00% # Request fanout histogram
system.tol2bus.snoop_fanout::overflows              0      0.00%    100.00% # Request fanout histogram
system.tol2bus.snoop_fanout::min_value              0                       # Request fanout histogram
system.tol2bus.snoop_fanout::max_value              2                       # Request fanout histogram
system.tol2bus.snoop_fanout::total               4888                       # Request fanout histogram
system.tol2bus.reqLayer0.occupancy            5380500                       # Layer occupancy (ticks)
system.tol2bus.reqLayer0.utilization              0.9                       # Layer utilization (%)
system.tol2bus.respLayer5.occupancy            394491                       # Layer occupancy (ticks)
system.tol2bus.respLayer5.utilization             0.1                       # Layer utilization (%)
system.tol2bus.respLayer4.occupancy            921000                       # Layer occupancy (ticks)
system.tol2bus.respLayer4.utilization             0.2                       # Layer utilization (%)
system.tol2bus.respLayer1.occupancy           2404494                       # Layer occupancy (ticks)
system.tol2bus.respLayer1.utilization             0.4                       # Layer utilization (%)
system.tol2bus.respLayer0.occupancy           2641500                       # Layer occupancy (ticks)
system.tol2bus.respLayer0.utilization             0.5                       # Layer utilization (%)

---------- End Simulation Statistics   ----------
