
---------- Begin Simulation Statistics ----------
final_tick                                  783599500                       # Number of ticks from beginning of simulation (restored from checkpoints and never reset)
host_inst_rate                                 214764                       # Simulator instruction rate (inst/s)
host_mem_usage                                 698992                       # Number of bytes of host memory used
host_op_rate                                   241883                       # Simulator op (including micro ops) rate (op/s)
host_seconds                                     7.44                       # Real time elapsed on the host
host_tick_rate                              105281731                       # Simulator tick rate (ticks/s)
sim_freq                                 1000000000000                       # Frequency of simulated ticks
sim_insts                                     1598439                       # Number of instructions simulated
sim_ops                                       1800302                       # Number of ops (including micro ops) simulated
sim_seconds                                  0.000784                       # Number of seconds simulated
sim_ticks                                   783599500                       # Number of ticks simulated
system.cpu0.branchPred.BTBCorrect                   0                       # Number of correct BTB predictions (this stat may not work properly.
system.cpu0.branchPred.BTBHitPct            88.203449                       # BTB Hit Percentage
system.cpu0.branchPred.BTBHits                  85373                       # Number of BTB hits
system.cpu0.branchPred.BTBLookups               96791                       # Number of BTB lookups
system.cpu0.branchPred.RASInCorrect               593                       # Number of incorrect RAS predictions.
system.cpu0.branchPred.condIncorrect             2415                       # Number of conditional branches incorrect
system.cpu0.branchPred.condPredicted           164474                       # Number of conditional branches predicted
system.cpu0.branchPred.indirectHits              2902                       # Number of indirect target hits.
system.cpu0.branchPred.indirectLookups           4175                       # Number of indirect predictor lookups.
system.cpu0.branchPred.indirectMisses            1273                       # Number of indirect misses.
system.cpu0.branchPred.lookups                 211125                       # Number of BP lookups
system.cpu0.branchPred.usedRAS                  13618                       # Number of times the RAS was used to get a target.
system.cpu0.branchPredindirectMispredicted           89                       # Number of mispredicted indirect branches.
system.cpu0.committedInsts                    1000000                       # Number of instructions committed
system.cpu0.committedOps                      1102176                       # Number of ops (including micro ops) committed
system.cpu0.cpi                              1.567199                       # CPI: cycles per instruction
system.cpu0.discardedOps                        13599                       # Number of ops (including micro ops) which were discarded before commit
system.cpu0.dtb.accesses                            0                       # DTB accesses
system.cpu0.dtb.align_faults                        0                       # Number of TLB faults due to alignment restrictions
system.cpu0.dtb.domain_faults                       0                       # Number of TLB faults due to domain restrictions
system.cpu0.dtb.flush_entries                       0                       # Number of entries that have been flushed from TLB
system.cpu0.dtb.flush_tlb                           0                       # Number of times complete TLB was flushed
system.cpu0.dtb.flush_tlb_asid                      0                       # Number of times TLB was flushed by ASID
system.cpu0.dtb.flush_tlb_mva                       0                       # Number of times TLB was flushed by MVA
system.cpu0.dtb.flush_tlb_mva_asid                  0                       # Number of times TLB was flushed by MVA & ASID
system.cpu0.dtb.hits                                0                       # DTB hits
system.cpu0.dtb.inst_accesses                       0                       # ITB inst accesses
system.cpu0.dtb.inst_hits                           0                       # ITB inst hits
system.cpu0.dtb.inst_misses                         0                       # ITB inst misses
system.cpu0.dtb.misses                              0                       # DTB misses
system.cpu0.dtb.perms_faults                        0                       # Number of TLB faults due to permissions restrictions
system.cpu0.dtb.prefetch_faults                     0                       # Number of TLB faults due to prefetch
system.cpu0.dtb.read_accesses                       0                       # DTB read accesses
system.cpu0.dtb.read_hits                           0                       # DTB read hits
system.cpu0.dtb.read_misses                         0                       # DTB read misses
system.cpu0.dtb.stage2_mmu.stage2_tlb.accesses            0                       # DTB accesses
system.cpu0.dtb.stage2_mmu.stage2_tlb.align_faults            0                       # Number of TLB faults due to alignment restrictions
system.cpu0.dtb.stage2_mmu.stage2_tlb.domain_faults            0                       # Number of TLB faults due to domain restrictions
system.cpu0.dtb.stage2_mmu.stage2_tlb.flush_entries            0                       # Number of entries that have been flushed from TLB
system.cpu0.dtb.stage2_mmu.stage2_tlb.flush_tlb            0                       # Number of times complete TLB was flushed
system.cpu0.dtb.stage2_mmu.stage2_tlb.flush_tlb_asid            0                       # Number of times TLB was flushed by ASID
system.cpu0.dtb.stage2_mmu.stage2_tlb.flush_tlb_mva            0                       # Number of times TLB was flushed by MVA
system.cpu0.dtb.stage2_mmu.stage2_tlb.flush_tlb_mva_asid            0                       # Number of times TLB was flushed by MVA & ASID
system.cpu0.dtb.stage2_mmu.stage2_tlb.hits            0                       # DTB hits
system.cpu0.dtb.stage2_mmu.stage2_tlb.inst_accesses            0                       # ITB inst accesses
system.cpu0.dtb.stage2_mmu.stage2_tlb.inst_hits            0                       # ITB inst hits
system.cpu0.dtb.stage2_mmu.stage2_tlb.inst_misses            0                       # ITB inst misses
system.cpu0.dtb.stage2_mmu.stage2_tlb.misses            0                       # DTB misses
system.cpu0.dtb.stage2_mmu.stage2_tlb.perms_faults            0                       # Number of TLB faults due to permissions restrictions
system.cpu0.dtb.stage2_mmu.stage2_tlb.prefetch_faults            0                       # Number of TLB faults due to prefetch
system.cpu0.dtb.stage2_mmu.stage2_tlb.read_accesses            0                       # DTB read accesses
system.cpu0.dtb.stage2_mmu.stage2_tlb.read_hits            0                       # DTB read hits
system.cpu0.dtb.stage2_mmu.stage2_tlb.read_misses            0                       # DTB read misses
system.cpu0.dtb.stage2_mmu.stage2_tlb.walker.walkRequestOrigin_Requested::Data            0                       # Table walker requests started/completed, data/inst
system.cpu0.dtb.stage2_mmu.stage2_tlb.walker.walkRequestOrigin_Requested::Inst            0                       # Table walker requests started/completed, data/inst
system.cpu0.dtb.stage2_mmu.stage2_tlb.walker.walkRequestOrigin_Requested::total            0                       # Table walker requests started/completed, data/inst
system.cpu0.dtb.stage2_mmu.stage2_tlb.walker.walkRequestOrigin_Completed::Data            0                       # Table walker requests started/completed, data/inst
system.cpu0.dtb.stage2_mmu.stage2_tlb.walker.walkRequestOrigin_Completed::Inst            0                       # Table walker requests started/completed, data/inst
system.cpu0.dtb.stage2_mmu.stage2_tlb.walker.walkRequestOrigin_Completed::total            0                       # Table walker requests started/completed, data/inst
system.cpu0.dtb.stage2_mmu.stage2_tlb.walker.walkRequestOrigin::total            0                       # Table walker requests started/completed, data/inst
system.cpu0.dtb.stage2_mmu.stage2_tlb.walker.walks            0                       # Table walker walks requested
system.cpu0.dtb.stage2_mmu.stage2_tlb.write_accesses            0                       # DTB write accesses
system.cpu0.dtb.stage2_mmu.stage2_tlb.write_hits            0                       # DTB write hits
system.cpu0.dtb.stage2_mmu.stage2_tlb.write_misses            0                       # DTB write misses
system.cpu0.dtb.walker.walkRequestOrigin_Requested::Data            0                       # Table walker requests started/completed, data/inst
system.cpu0.dtb.walker.walkRequestOrigin_Requested::Inst            0                       # Table walker requests started/completed, data/inst
system.cpu0.dtb.walker.walkRequestOrigin_Requested::total            0                       # Table walker requests started/completed, data/inst
system.cpu0.dtb.walker.walkRequestOrigin_Completed::Data            0                       # Table walker requests started/completed, data/inst
system.cpu0.dtb.walker.walkRequestOrigin_Completed::Inst            0                       # Table walker requests started/completed, data/inst
system.cpu0.dtb.walker.walkRequestOrigin_Completed::total            0                       # Table walker requests started/completed, data/inst
system.cpu0.dtb.walker.walkRequestOrigin::total            0                       # Table walker requests started/completed, data/inst
system.cpu0.dtb.walker.walks                        0                       # Table walker walks requested
system.cpu0.dtb.write_accesses                      0                       # DTB write accesses
system.cpu0.dtb.write_hits                          0                       # DTB write hits
system.cpu0.dtb.write_misses                        0                       # DTB write misses
system.cpu0.fetch2.amo_instructions                 0                       # Number of memory atomic instructions successfully decoded
system.cpu0.fetch2.fp_instructions                  0                       # Number of floating point instructions successfully decoded
system.cpu0.fetch2.int_instructions            480719                       # Number of integer instructions successfully decoded
system.cpu0.fetch2.load_instructions           185270                       # Number of memory load instructions successfully decoded
system.cpu0.fetch2.store_instructions          126725                       # Number of memory store instructions successfully decoded
system.cpu0.fetch2.vec_instructions                 0                       # Number of SIMD instructions successfully decoded
system.cpu0.idleCycles                         397956                       # Total number of cycles that the object has spent stopped
system.cpu0.ipc                              0.638081                       # IPC: instructions per cycle
system.cpu0.itb.accesses                            0                       # DTB accesses
system.cpu0.itb.align_faults                        0                       # Number of TLB faults due to alignment restrictions
system.cpu0.itb.domain_faults                       0                       # Number of TLB faults due to domain restrictions
system.cpu0.itb.flush_entries                       0                       # Number of entries that have been flushed from TLB
system.cpu0.itb.flush_tlb                           0                       # Number of times complete TLB was flushed
system.cpu0.itb.flush_tlb_asid                      0                       # Number of times TLB was flushed by ASID
system.cpu0.itb.flush_tlb_mva                       0                       # Number of times TLB was flushed by MVA
system.cpu0.itb.flush_tlb_mva_asid                  0                       # Number of times TLB was flushed by MVA & ASID
system.cpu0.itb.hits                                0                       # DTB hits
system.cpu0.itb.inst_accesses                       0                       # ITB inst accesses
system.cpu0.itb.inst_hits                           0                       # ITB inst hits
system.cpu0.itb.inst_misses                         0                       # ITB inst misses
system.cpu0.itb.misses                              0                       # DTB misses
system.cpu0.itb.perms_faults                        0                       # Number of TLB faults due to permissions restrictions
system.cpu0.itb.prefetch_faults                     0                       # Number of TLB faults due to prefetch
system.cpu0.itb.read_accesses                       0                       # DTB read accesses
system.cpu0.itb.read_hits                           0                       # DTB read hits
system.cpu0.itb.read_misses                         0                       # DTB read misses
system.cpu0.itb.stage2_mmu.stage2_tlb.accesses            0                       # DTB accesses
system.cpu0.itb.stage2_mmu.stage2_tlb.align_faults            0                       # Number of TLB faults due to alignment restrictions
system.cpu0.itb.stage2_mmu.stage2_tlb.domain_faults            0                       # Number of TLB faults due to domain restrictions
system.cpu0.itb.stage2_mmu.stage2_tlb.flush_entries            0                       # Number of entries that have been flushed from TLB
system.cpu0.itb.stage2_mmu.stage2_tlb.flush_tlb            0                       # Number of times complete TLB was flushed
system.cpu0.itb.stage2_mmu.stage2_tlb.flush_tlb_asid            0                       # Number of times TLB was flushed by ASID
system.cpu0.itb.stage2_mmu.stage2_tlb.flush_tlb_mva            0                       # Number of times TLB was flushed by MVA
system.cpu0.itb.stage2_mmu.stage2_tlb.flush_tlb_mva_asid            0                       # Number of times TLB was flushed by MVA & ASID
system.cpu0.itb.stage2_mmu.stage2_tlb.hits            0                       # DTB hits
system.cpu0.itb.stage2_mmu.stage2_tlb.inst_accesses            0                       # ITB inst accesses
system.cpu0.itb.stage2_mmu.stage2_tlb.inst_hits            0                       # ITB inst hits
system.cpu0.itb.stage2_mmu.stage2_tlb.inst_misses            0                       # ITB inst misses
system.cpu0.itb.stage2_mmu.stage2_tlb.misses            0                       # DTB misses
system.cpu0.itb.stage2_mmu.stage2_tlb.perms_faults            0                       # Number of TLB faults due to permissions restrictions
system.cpu0.itb.stage2_mmu.stage2_tlb.prefetch_faults            0                       # Number of TLB faults due to prefetch
system.cpu0.itb.stage2_mmu.stage2_tlb.read_accesses            0                       # DTB read accesses
system.cpu0.itb.stage2_mmu.stage2_tlb.read_hits            0                       # DTB read hits
system.cpu0.itb.stage2_mmu.stage2_tlb.read_misses            0                       # DTB read misses
system.cpu0.itb.stage2_mmu.stage2_tlb.walker.walkRequestOrigin_Requested::Data            0                       # Table walker requests started/completed, data/inst
system.cpu0.itb.stage2_mmu.stage2_tlb.walker.walkRequestOrigin_Requested::Inst            0                       # Table walker requests started/completed, data/inst
system.cpu0.itb.stage2_mmu.stage2_tlb.walker.walkRequestOrigin_Requested::total            0                       # Table walker requests started/completed, data/inst
system.cpu0.itb.stage2_mmu.stage2_tlb.walker.walkRequestOrigin_Completed::Data            0                       # Table walker requests started/completed, data/inst
system.cpu0.itb.stage2_mmu.stage2_tlb.walker.walkRequestOrigin_Completed::Inst            0                       # Table walker requests started/completed, data/inst
system.cpu0.itb.stage2_mmu.stage2_tlb.walker.walkRequestOrigin_Completed::total            0                       # Table walker requests started/completed, data/inst
system.cpu0.itb.stage2_mmu.stage2_tlb.walker.walkRequestOrigin::total            0                       # Table walker requests started/completed, data/inst
system.cpu0.itb.stage2_mmu.stage2_tlb.walker.walks            0                       # Table walker walks requested
system.cpu0.itb.stage2_mmu.stage2_tlb.write_accesses            0                       # DTB write accesses
system.cpu0.itb.stage2_mmu.stage2_tlb.write_hits            0                       # DTB write hits
system.cpu0.itb.stage2_mmu.stage2_tlb.write_misses            0                       # DTB write misses
system.cpu0.itb.walker.walkRequestOrigin_Requested::Data            0                       # Table walker requests started/completed, data/inst
system.cpu0.itb.walker.walkRequestOrigin_Requested::Inst            0                       # Table walker requests started/completed, data/inst
system.cpu0.itb.walker.walkRequestOrigin_Requested::total            0                       # Table walker requests started/completed, data/inst
system.cpu0.itb.walker.walkRequestOrigin_Completed::Data            0                       # Table walker requests started/completed, data/inst
system.cpu0.itb.walker.walkRequestOrigin_Completed::Inst            0                       # Table walker requests started/completed, data/inst
system.cpu0.itb.walker.walkRequestOrigin_Completed::total            0                       # Table walker requests started/completed, data/inst
system.cpu0.itb.walker.walkRequestOrigin::total            0                       # Table walker requests started/completed, data/inst
system.cpu0.itb.walker.walks                        0                       # Table walker walks requested
system.cpu0.itb.write_accesses                      0                       # DTB write accesses
system.cpu0.itb.write_hits                          0                       # DTB write hits
system.cpu0.itb.write_misses                        0                       # DTB write misses
system.cpu0.numCycles                         1567199                       # number of cpu cycles simulated
system.cpu0.numFetchSuspends                        0                       # Number of times Execute suspended instruction fetching
system.cpu0.numWorkItemsCompleted                   0                       # number of work items this cpu completed
system.cpu0.numWorkItemsStarted                     0                       # number of work items this cpu started
system.cpu0.op_class_0::No_OpClass                  0      0.00%      0.00% # Class of committed instruction
system.cpu0.op_class_0::IntAlu                 703969     63.87%     63.87% # Class of committed instruction
system.cpu0.op_class_0::IntMult                  3467      0.31%     64.19% # Class of committed instruction
system.cpu0.op_class_0::IntDiv                      0      0.00%     64.19% # Class of committed instruction
system.cpu0.op_class_0::FloatAdd                    0      0.00%     64.19% # Class of committed instruction
system.cpu0.op_class_0::FloatCmp                    0      0.00%     64.19% # Class of committed instruction
system.cpu0.op_class_0::FloatCvt                    0      0.00%     64.19% # Class of committed instruction
system.cpu0.op_class_0::FloatMult                   0      0.00%     64.19% # Class of committed instruction
system.cpu0.op_class_0::FloatMultAcc                0      0.00%     64.19% # Class of committed instruction
system.cpu0.op_class_0::FloatDiv                    0      0.00%     64.19% # Class of committed instruction
system.cpu0.op_class_0::FloatMisc                   0      0.00%     64.19% # Class of committed instruction
system.cpu0.op_class_0::FloatSqrt                   0      0.00%     64.19% # Class of committed instruction
system.cpu0.op_class_0::SimdAdd                     0      0.00%     64.19% # Class of committed instruction
system.cpu0.op_class_0::SimdAddAcc                  0      0.00%     64.19% # Class of committed instruction
system.cpu0.op_class_0::SimdAlu                     0      0.00%     64.19% # Class of committed instruction
system.cpu0.op_class_0::SimdCmp                     0      0.00%     64.19% # Class of committed instruction
system.cpu0.op_class_0::SimdCvt                     0      0.00%     64.19% # Class of committed instruction
system.cpu0.op_class_0::SimdMisc                    0      0.00%     64.19% # Class of committed instruction
system.cpu0.op_class_0::SimdMult                    0      0.00%     64.19% # Class of committed instruction
system.cpu0.op_class_0::SimdMultAcc                 0      0.00%     64.19% # Class of committed instruction
system.cpu0.op_class_0::SimdShift                   0      0.00%     64.19% # Class of committed instruction
system.cpu0.op_class_0::SimdShiftAcc                0      0.00%     64.19% # Class of committed instruction
system.cpu0.op_class_0::SimdDiv                     0      0.00%     64.19% # Class of committed instruction
system.cpu0.op_class_0::SimdSqrt                    0      0.00%     64.19% # Class of committed instruction
system.cpu0.op_class_0::SimdFloatAdd                0      0.00%     64.19% # Class of committed instruction
system.cpu0.op_class_0::SimdFloatAlu                0      0.00%     64.19% # Class of committed instruction
system.cpu0.op_class_0::SimdFloatCmp                0      0.00%     64.19% # Class of committed instruction
system.cpu0.op_class_0::SimdFloatCvt                0      0.00%     64.19% # Class of committed instruction
system.cpu0.op_class_0::SimdFloatDiv                0      0.00%     64.19% # Class of committed instruction
system.cpu0.op_class_0::SimdFloatMisc               0      0.00%     64.19% # Class of committed instruction
system.cpu0.op_class_0::SimdFloatMult               0      0.00%     64.19% # Class of committed instruction
system.cpu0.op_class_0::SimdFloatMultAcc            0      0.00%     64.19% # Class of committed instruction
system.cpu0.op_class_0::SimdFloatSqrt               0      0.00%     64.19% # Class of committed instruction
system.cpu0.op_class_0::SimdReduceAdd               0      0.00%     64.19% # Class of committed instruction
system.cpu0.op_class_0::SimdReduceAlu               0      0.00%     64.19% # Class of committed instruction
system.cpu0.op_class_0::SimdReduceCmp               0      0.00%     64.19% # Class of committed instruction
system.cpu0.op_class_0::SimdFloatReduceAdd            0      0.00%     64.19% # Class of committed instruction
system.cpu0.op_class_0::SimdFloatReduceCmp            0      0.00%     64.19% # Class of committed instruction
system.cpu0.op_class_0::SimdAes                     0      0.00%     64.19% # Class of committed instruction
system.cpu0.op_class_0::SimdAesMix                  0      0.00%     64.19% # Class of committed instruction
system.cpu0.op_class_0::SimdSha1Hash                0      0.00%     64.19% # Class of committed instruction
system.cpu0.op_class_0::SimdSha1Hash2               0      0.00%     64.19% # Class of committed instruction
system.cpu0.op_class_0::SimdSha256Hash              0      0.00%     64.19% # Class of committed instruction
system.cpu0.op_class_0::SimdSha256Hash2             0      0.00%     64.19% # Class of committed instruction
system.cpu0.op_class_0::SimdShaSigma2               0      0.00%     64.19% # Class of committed instruction
system.cpu0.op_class_0::SimdShaSigma3               0      0.00%     64.19% # Class of committed instruction
system.cpu0.op_class_0::SimdPredAlu                 0      0.00%     64.19% # Class of committed instruction
system.cpu0.op_class_0::MemRead                216941     19.68%     83.87% # Class of committed instruction
system.cpu0.op_class_0::MemWrite               177799     16.13%    100.00% # Class of committed instruction
system.cpu0.op_class_0::FloatMemRead                0      0.00%    100.00% # Class of committed instruction
system.cpu0.op_class_0::FloatMemWrite               0      0.00%    100.00% # Class of committed instruction
system.cpu0.op_class_0::IprAccess                   0      0.00%    100.00% # Class of committed instruction
system.cpu0.op_class_0::InstPrefetch                0      0.00%    100.00% # Class of committed instruction
system.cpu0.op_class_0::total                 1102176                       # Class of committed instruction
system.cpu0.tickCycles                        1169243                       # Number of cycles that the object actually ticked
system.cpu0.workload.numSyscalls                   23                       # Number of system calls
system.cpu1.branchPred.BTBCorrect                   0                       # Number of correct BTB predictions (this stat may not work properly.
system.cpu1.branchPred.BTBHitPct            98.433737                       # BTB Hit Percentage
system.cpu1.branchPred.BTBHits                  98920                       # Number of BTB hits
system.cpu1.branchPred.BTBLookups              100494                       # Number of BTB lookups
system.cpu1.branchPred.RASInCorrect                 8                       # Number of incorrect RAS predictions.
system.cpu1.branchPred.condIncorrect              476                       # Number of conditional branches incorrect
system.cpu1.branchPred.condPredicted           100131                       # Number of conditional branches predicted
system.cpu1.branchPred.indirectHits                 6                       # Number of indirect target hits.
system.cpu1.branchPred.indirectLookups            100                       # Number of indirect predictor lookups.
system.cpu1.branchPred.indirectMisses              94                       # Number of indirect misses.
system.cpu1.branchPred.lookups                 101004                       # Number of BP lookups
system.cpu1.branchPred.usedRAS                    264                       # Number of times the RAS was used to get a target.
system.cpu1.branchPredindirectMispredicted           56                       # Number of mispredicted indirect branches.
system.cpu1.committedInsts                     598439                       # Number of instructions committed
system.cpu1.committedOps                       698126                       # Number of ops (including micro ops) committed
system.cpu1.cpi                              2.618731                       # CPI: cycles per instruction
system.cpu1.discardedOps                         1475                       # Number of ops (including micro ops) which were discarded before commit
system.cpu1.dtb.accesses                            0                       # DTB accesses
system.cpu1.dtb.align_faults                        0                       # Number of TLB faults due to alignment restrictions
system.cpu1.dtb.domain_faults                       0                       # Number of TLB faults due to domain restrictions
system.cpu1.dtb.flush_entries                       0                       # Number of entries that have been flushed from TLB
system.cpu1.dtb.flush_tlb                           0                       # Number of times complete TLB was flushed
system.cpu1.dtb.flush_tlb_asid                      0                       # Number of times TLB was flushed by ASID
system.cpu1.dtb.flush_tlb_mva                       0                       # Number of times TLB was flushed by MVA
system.cpu1.dtb.flush_tlb_mva_asid                  0                       # Number of times TLB was flushed by MVA & ASID
system.cpu1.dtb.hits                                0                       # DTB hits
system.cpu1.dtb.inst_accesses                       0                       # ITB inst accesses
system.cpu1.dtb.inst_hits                           0                       # ITB inst hits
system.cpu1.dtb.inst_misses                         0                       # ITB inst misses
system.cpu1.dtb.misses                              0                       # DTB misses
system.cpu1.dtb.perms_faults                        0                       # Number of TLB faults due to permissions restrictions
system.cpu1.dtb.prefetch_faults                     0                       # Number of TLB faults due to prefetch
system.cpu1.dtb.read_accesses                       0                       # DTB read accesses
system.cpu1.dtb.read_hits                           0                       # DTB read hits
system.cpu1.dtb.read_misses                         0                       # DTB read misses
system.cpu1.dtb.stage2_mmu.stage2_tlb.accesses            0                       # DTB accesses
system.cpu1.dtb.stage2_mmu.stage2_tlb.align_faults            0                       # Number of TLB faults due to alignment restrictions
system.cpu1.dtb.stage2_mmu.stage2_tlb.domain_faults            0                       # Number of TLB faults due to domain restrictions
system.cpu1.dtb.stage2_mmu.stage2_tlb.flush_entries            0                       # Number of entries that have been flushed from TLB
system.cpu1.dtb.stage2_mmu.stage2_tlb.flush_tlb            0                       # Number of times complete TLB was flushed
system.cpu1.dtb.stage2_mmu.stage2_tlb.flush_tlb_asid            0                       # Number of times TLB was flushed by ASID
system.cpu1.dtb.stage2_mmu.stage2_tlb.flush_tlb_mva            0                       # Number of times TLB was flushed by MVA
system.cpu1.dtb.stage2_mmu.stage2_tlb.flush_tlb_mva_asid            0                       # Number of times TLB was flushed by MVA & ASID
system.cpu1.dtb.stage2_mmu.stage2_tlb.hits            0                       # DTB hits
system.cpu1.dtb.stage2_mmu.stage2_tlb.inst_accesses            0                       # ITB inst accesses
system.cpu1.dtb.stage2_mmu.stage2_tlb.inst_hits            0                       # ITB inst hits
system.cpu1.dtb.stage2_mmu.stage2_tlb.inst_misses            0                       # ITB inst misses
system.cpu1.dtb.stage2_mmu.stage2_tlb.misses            0                       # DTB misses
system.cpu1.dtb.stage2_mmu.stage2_tlb.perms_faults            0                       # Number of TLB faults due to permissions restrictions
system.cpu1.dtb.stage2_mmu.stage2_tlb.prefetch_faults            0                       # Number of TLB faults due to prefetch
system.cpu1.dtb.stage2_mmu.stage2_tlb.read_accesses            0                       # DTB read accesses
system.cpu1.dtb.stage2_mmu.stage2_tlb.read_hits            0                       # DTB read hits
system.cpu1.dtb.stage2_mmu.stage2_tlb.read_misses            0                       # DTB read misses
system.cpu1.dtb.stage2_mmu.stage2_tlb.walker.walkRequestOrigin_Requested::Data            0                       # Table walker requests started/completed, data/inst
system.cpu1.dtb.stage2_mmu.stage2_tlb.walker.walkRequestOrigin_Requested::Inst            0                       # Table walker requests started/completed, data/inst
system.cpu1.dtb.stage2_mmu.stage2_tlb.walker.walkRequestOrigin_Requested::total            0                       # Table walker requests started/completed, data/inst
system.cpu1.dtb.stage2_mmu.stage2_tlb.walker.walkRequestOrigin_Completed::Data            0                       # Table walker requests started/completed, data/inst
system.cpu1.dtb.stage2_mmu.stage2_tlb.walker.walkRequestOrigin_Completed::Inst            0                       # Table walker requests started/completed, data/inst
system.cpu1.dtb.stage2_mmu.stage2_tlb.walker.walkRequestOrigin_Completed::total            0                       # Table walker requests started/completed, data/inst
system.cpu1.dtb.stage2_mmu.stage2_tlb.walker.walkRequestOrigin::total            0                       # Table walker requests started/completed, data/inst
system.cpu1.dtb.stage2_mmu.stage2_tlb.walker.walks            0                       # Table walker walks requested
system.cpu1.dtb.stage2_mmu.stage2_tlb.write_accesses            0                       # DTB write accesses
system.cpu1.dtb.stage2_mmu.stage2_tlb.write_hits            0                       # DTB write hits
system.cpu1.dtb.stage2_mmu.stage2_tlb.write_misses            0                       # DTB write misses
system.cpu1.dtb.walker.walkRequestOrigin_Requested::Data            0                       # Table walker requests started/completed, data/inst
system.cpu1.dtb.walker.walkRequestOrigin_Requested::Inst            0                       # Table walker requests started/completed, data/inst
system.cpu1.dtb.walker.walkRequestOrigin_Requested::total            0                       # Table walker requests started/completed, data/inst
system.cpu1.dtb.walker.walkRequestOrigin_Completed::Data            0                       # Table walker requests started/completed, data/inst
system.cpu1.dtb.walker.walkRequestOrigin_Completed::Inst            0                       # Table walker requests started/completed, data/inst
system.cpu1.dtb.walker.walkRequestOrigin_Completed::total            0                       # Table walker requests started/completed, data/inst
system.cpu1.dtb.walker.walkRequestOrigin::total            0                       # Table walker requests started/completed, data/inst
system.cpu1.dtb.walker.walks                        0                       # Table walker walks requested
system.cpu1.dtb.write_accesses                      0                       # DTB write accesses
system.cpu1.dtb.write_hits                          0                       # DTB write hits
system.cpu1.dtb.write_misses                        0                       # DTB write misses
system.cpu1.fetch2.amo_instructions                 0                       # Number of memory atomic instructions successfully decoded
system.cpu1.fetch2.fp_instructions                  0                       # Number of floating point instructions successfully decoded
system.cpu1.fetch2.int_instructions            302947                       # Number of integer instructions successfully decoded
system.cpu1.fetch2.load_instructions           100237                       # Number of memory load instructions successfully decoded
system.cpu1.fetch2.store_instructions            1345                       # Number of memory store instructions successfully decoded
system.cpu1.fetch2.vec_instructions                 0                       # Number of SIMD instructions successfully decoded
system.cpu1.idleCycles                         899760                       # Total number of cycles that the object has spent stopped
system.cpu1.ipc                              0.381864                       # IPC: instructions per cycle
system.cpu1.itb.accesses                            0                       # DTB accesses
system.cpu1.itb.align_faults                        0                       # Number of TLB faults due to alignment restrictions
system.cpu1.itb.domain_faults                       0                       # Number of TLB faults due to domain restrictions
system.cpu1.itb.flush_entries                       0                       # Number of entries that have been flushed from TLB
system.cpu1.itb.flush_tlb                           0                       # Number of times complete TLB was flushed
system.cpu1.itb.flush_tlb_asid                      0                       # Number of times TLB was flushed by ASID
system.cpu1.itb.flush_tlb_mva                       0                       # Number of times TLB was flushed by MVA
system.cpu1.itb.flush_tlb_mva_asid                  0                       # Number of times TLB was flushed by MVA & ASID
system.cpu1.itb.hits                                0                       # DTB hits
system.cpu1.itb.inst_accesses                       0                       # ITB inst accesses
system.cpu1.itb.inst_hits                           0                       # ITB inst hits
system.cpu1.itb.inst_misses                         0                       # ITB inst misses
system.cpu1.itb.misses                              0                       # DTB misses
system.cpu1.itb.perms_faults                        0                       # Number of TLB faults due to permissions restrictions
system.cpu1.itb.prefetch_faults                     0                       # Number of TLB faults due to prefetch
system.cpu1.itb.read_accesses                       0                       # DTB read accesses
system.cpu1.itb.read_hits                           0                       # DTB read hits
system.cpu1.itb.read_misses                         0                       # DTB read misses
system.cpu1.itb.stage2_mmu.stage2_tlb.accesses            0                       # DTB accesses
system.cpu1.itb.stage2_mmu.stage2_tlb.align_faults            0                       # Number of TLB faults due to alignment restrictions
system.cpu1.itb.stage2_mmu.stage2_tlb.domain_faults            0                       # Number of TLB faults due to domain restrictions
system.cpu1.itb.stage2_mmu.stage2_tlb.flush_entries            0                       # Number of entries that have been flushed from TLB
system.cpu1.itb.stage2_mmu.stage2_tlb.flush_tlb            0                       # Number of times complete TLB was flushed
system.cpu1.itb.stage2_mmu.stage2_tlb.flush_tlb_asid            0                       # Number of times TLB was flushed by ASID
system.cpu1.itb.stage2_mmu.stage2_tlb.flush_tlb_mva            0                       # Number of times TLB was flushed by MVA
system.cpu1.itb.stage2_mmu.stage2_tlb.flush_tlb_mva_asid            0                       # Number of times TLB was flushed by MVA & ASID
system.cpu1.itb.stage2_mmu.stage2_tlb.hits            0                       # DTB hits
system.cpu1.itb.stage2_mmu.stage2_tlb.inst_accesses            0                       # ITB inst accesses
system.cpu1.itb.stage2_mmu.stage2_tlb.inst_hits            0                       # ITB inst hits
system.cpu1.itb.stage2_mmu.stage2_tlb.inst_misses            0                       # ITB inst misses
system.cpu1.itb.stage2_mmu.stage2_tlb.misses            0                       # DTB misses
system.cpu1.itb.stage2_mmu.stage2_tlb.perms_faults            0                       # Number of TLB faults due to permissions restrictions
system.cpu1.itb.stage2_mmu.stage2_tlb.prefetch_faults            0                       # Number of TLB faults due to prefetch
system.cpu1.itb.stage2_mmu.stage2_tlb.read_accesses            0                       # DTB read accesses
system.cpu1.itb.stage2_mmu.stage2_tlb.read_hits            0                       # DTB read hits
system.cpu1.itb.stage2_mmu.stage2_tlb.read_misses            0                       # DTB read misses
system.cpu1.itb.stage2_mmu.stage2_tlb.walker.walkRequestOrigin_Requested::Data            0                       # Table walker requests started/completed, data/inst
system.cpu1.itb.stage2_mmu.stage2_tlb.walker.walkRequestOrigin_Requested::Inst            0                       # Table walker requests started/completed, data/inst
system.cpu1.itb.stage2_mmu.stage2_tlb.walker.walkRequestOrigin_Requested::total            0                       # Table walker requests started/completed, data/inst
system.cpu1.itb.stage2_mmu.stage2_tlb.walker.walkRequestOrigin_Completed::Data            0                       # Table walker requests started/completed, data/inst
system.cpu1.itb.stage2_mmu.stage2_tlb.walker.walkRequestOrigin_Completed::Inst            0                       # Table walker requests started/completed, data/inst
system.cpu1.itb.stage2_mmu.stage2_tlb.walker.walkRequestOrigin_Completed::total            0                       # Table walker requests started/completed, data/inst
system.cpu1.itb.stage2_mmu.stage2_tlb.walker.walkRequestOrigin::total            0                       # Table walker requests started/completed, data/inst
system.cpu1.itb.stage2_mmu.stage2_tlb.walker.walks            0                       # Table walker walks requested
system.cpu1.itb.stage2_mmu.stage2_tlb.write_accesses            0                       # DTB write accesses
system.cpu1.itb.stage2_mmu.stage2_tlb.write_hits            0                       # DTB write hits
system.cpu1.itb.stage2_mmu.stage2_tlb.write_misses            0                       # DTB write misses
system.cpu1.itb.walker.walkRequestOrigin_Requested::Data            0                       # Table walker requests started/completed, data/inst
system.cpu1.itb.walker.walkRequestOrigin_Requested::Inst            0                       # Table walker requests started/completed, data/inst
system.cpu1.itb.walker.walkRequestOrigin_Requested::total            0                       # Table walker requests started/completed, data/inst
system.cpu1.itb.walker.walkRequestOrigin_Completed::Data            0                       # Table walker requests started/completed, data/inst
system.cpu1.itb.walker.walkRequestOrigin_Completed::Inst            0                       # Table walker requests started/completed, data/inst
system.cpu1.itb.walker.walkRequestOrigin_Completed::total            0                       # Table walker requests started/completed, data/inst
system.cpu1.itb.walker.walkRequestOrigin::total            0                       # Table walker requests started/completed, data/inst
system.cpu1.itb.walker.walks                        0                       # Table walker walks requested
system.cpu1.itb.write_accesses                      0                       # DTB write accesses
system.cpu1.itb.write_hits                          0                       # DTB write hits
system.cpu1.itb.write_misses                        0                       # DTB write misses
system.cpu1.numCycles                         1567151                       # number of cpu cycles simulated
system.cpu1.numFetchSuspends                        0                       # Number of times Execute suspended instruction fetching
system.cpu1.numWorkItemsCompleted                   0                       # number of work items this cpu completed
system.cpu1.numWorkItemsStarted                     0                       # number of work items this cpu started
system.cpu1.op_class_0::No_OpClass                  0      0.00%      0.00% # Class of committed instruction
system.cpu1.op_class_0::IntAlu                 498319     71.38%     71.38% # Class of committed instruction
system.cpu1.op_class_0::IntMult                    35      0.01%     71.38% # Class of committed instruction
system.cpu1.op_class_0::IntDiv                      0      0.00%     71.38% # Class of committed instruction
system.cpu1.op_class_0::FloatAdd                    0      0.00%     71.38% # Class of committed instruction
system.cpu1.op_class_0::FloatCmp                    0      0.00%     71.38% # Class of committed instruction
system.cpu1.op_class_0::FloatCvt                    0      0.00%     71.38% # Class of committed instruction
system.cpu1.op_class_0::FloatMult                   0      0.00%     71.38% # Class of committed instruction
system.cpu1.op_class_0::FloatMultAcc                0      0.00%     71.38% # Class of committed instruction
system.cpu1.op_class_0::FloatDiv                    0      0.00%     71.38% # Class of committed instruction
system.cpu1.op_class_0::FloatMisc                   0      0.00%     71.38% # Class of committed instruction
system.cpu1.op_class_0::FloatSqrt                   0      0.00%     71.38% # Class of committed instruction
system.cpu1.op_class_0::SimdAdd                     0      0.00%     71.38% # Class of committed instruction
system.cpu1.op_class_0::SimdAddAcc                  0      0.00%     71.38% # Class of committed instruction
system.cpu1.op_class_0::SimdAlu                     0      0.00%     71.38% # Class of committed instruction
system.cpu1.op_class_0::SimdCmp                     0      0.00%     71.38% # Class of committed instruction
system.cpu1.op_class_0::SimdCvt                     0      0.00%     71.38% # Class of committed instruction
system.cpu1.op_class_0::SimdMisc                    0      0.00%     71.38% # Class of committed instruction
system.cpu1.op_class_0::SimdMult                    0      0.00%     71.38% # Class of committed instruction
system.cpu1.op_class_0::SimdMultAcc                 0      0.00%     71.38% # Class of committed instruction
system.cpu1.op_class_0::SimdShift                   0      0.00%     71.38% # Class of committed instruction
system.cpu1.op_class_0::SimdShiftAcc                0      0.00%     71.38% # Class of committed instruction
system.cpu1.op_class_0::SimdDiv                     0      0.00%     71.38% # Class of committed instruction
system.cpu1.op_class_0::SimdSqrt                    0      0.00%     71.38% # Class of committed instruction
system.cpu1.op_class_0::SimdFloatAdd                0      0.00%     71.38% # Class of committed instruction
system.cpu1.op_class_0::SimdFloatAlu                0      0.00%     71.38% # Class of committed instruction
system.cpu1.op_class_0::SimdFloatCmp                0      0.00%     71.38% # Class of committed instruction
system.cpu1.op_class_0::SimdFloatCvt                2      0.00%     71.38% # Class of committed instruction
system.cpu1.op_class_0::SimdFloatDiv                1      0.00%     71.38% # Class of committed instruction
system.cpu1.op_class_0::SimdFloatMisc               2      0.00%     71.39% # Class of committed instruction
system.cpu1.op_class_0::SimdFloatMult               1      0.00%     71.39% # Class of committed instruction
system.cpu1.op_class_0::SimdFloatMultAcc            0      0.00%     71.39% # Class of committed instruction
system.cpu1.op_class_0::SimdFloatSqrt               0      0.00%     71.39% # Class of committed instruction
system.cpu1.op_class_0::SimdReduceAdd               0      0.00%     71.39% # Class of committed instruction
system.cpu1.op_class_0::SimdReduceAlu               0      0.00%     71.39% # Class of committed instruction
system.cpu1.op_class_0::SimdReduceCmp               0      0.00%     71.39% # Class of committed instruction
system.cpu1.op_class_0::SimdFloatReduceAdd            0      0.00%     71.39% # Class of committed instruction
system.cpu1.op_class_0::SimdFloatReduceCmp            0      0.00%     71.39% # Class of committed instruction
system.cpu1.op_class_0::SimdAes                     0      0.00%     71.39% # Class of committed instruction
system.cpu1.op_class_0::SimdAesMix                  0      0.00%     71.39% # Class of committed instruction
system.cpu1.op_class_0::SimdSha1Hash                0      0.00%     71.39% # Class of committed instruction
system.cpu1.op_class_0::SimdSha1Hash2               0      0.00%     71.39% # Class of committed instruction
system.cpu1.op_class_0::SimdSha256Hash              0      0.00%     71.39% # Class of committed instruction
system.cpu1.op_class_0::SimdSha256Hash2             0      0.00%     71.39% # Class of committed instruction
system.cpu1.op_class_0::SimdShaSigma2               0      0.00%     71.39% # Class of committed instruction
system.cpu1.op_class_0::SimdShaSigma3               0      0.00%     71.39% # Class of committed instruction
system.cpu1.op_class_0::SimdPredAlu                 0      0.00%     71.39% # Class of committed instruction
system.cpu1.op_class_0::MemRead                 99765     14.29%     85.68% # Class of committed instruction
system.cpu1.op_class_0::MemWrite               100001     14.32%    100.00% # Class of committed instruction
system.cpu1.op_class_0::FloatMemRead                0      0.00%    100.00% # Class of committed instruction
system.cpu1.op_class_0::FloatMemWrite               0      0.00%    100.00% # Class of committed instruction
system.cpu1.op_class_0::IprAccess                   0      0.00%    100.00% # Class of committed instruction
system.cpu1.op_class_0::InstPrefetch                0      0.00%    100.00% # Class of committed instruction
system.cpu1.op_class_0::total                  698126                       # Class of committed instruction
system.cpu1.tickCycles                         667391                       # Number of cycles that the object actually ticked
system.cpu1.workload.numSyscalls                   11                       # Number of system calls
system.membus.snoop_filter.hit_multi_requests            0                       # Number of requests hitting in the snoop filter with multiple (>1) holders of the requested data.
system.membus.snoop_filter.hit_multi_snoops            0                       # Number of snoops hitting in the snoop filter with multiple (>1) holders of the requested data.
system.membus.snoop_filter.hit_single_requests         4282                       # Number of requests hitting in the snoop filter with a single holder of the requested data.
system.membus.snoop_filter.hit_single_snoops            0                       # Number of snoops hitting in the snoop filter with a single holder of the requested data.
system.membus.snoop_filter.tot_requests         13499                       # Total number of requests made to the snoop filter.
system.membus.snoop_filter.tot_snoops               0                       # Total number of snoops made to the snoop filter.
system.tol2bus.snoop_filter.hit_multi_requests           47                       # Number of requests hitting in the snoop filter with multiple (>1) holders of the requested data.
system.tol2bus.snoop_filter.hit_multi_snoops            5                       # Number of snoops hitting in the snoop filter with multiple (>1) holders of the requested data.
system.tol2bus.snoop_filter.hit_single_requests         8352                       # Number of requests hitting in the snoop filter with a single holder of the requested data.
system.tol2bus.snoop_filter.hit_single_snoops          338                       # Number of snoops hitting in the snoop filter with a single holder of the requested data.
system.tol2bus.snoop_filter.tot_requests        19405                       # Total number of requests made to the snoop filter.
system.tol2bus.snoop_filter.tot_snoops            343                       # Total number of snoops made to the snoop filter.
system.membus.pwrStateResidencyTicks::UNDEFINED    783599500                       # Cumulative time (in ticks) in various power states
system.membus.trans_dist::ReadResp               1071                       # Transaction distribution
system.membus.trans_dist::WritebackDirty         4173                       # Transaction distribution
system.membus.trans_dist::CleanEvict              109                       # Transaction distribution
system.membus.trans_dist::ReadExReq              8146                       # Transaction distribution
system.membus.trans_dist::ReadExResp             8145                       # Transaction distribution
system.membus.trans_dist::ReadSharedReq          1071                       # Transaction distribution
system.membus.pkt_count_system.l2.mem_side::system.mem_ctrls.port        22715                       # Packet count per connected master and slave (bytes)
system.membus.pkt_count::total                  22715                       # Packet count per connected master and slave (bytes)
system.membus.pkt_size_system.l2.mem_side::system.mem_ctrls.port       856896                       # Cumulative packet size per connected master and slave (bytes)
system.membus.pkt_size::total                  856896                       # Cumulative packet size per connected master and slave (bytes)
system.membus.snoops                                0                       # Total snoops (count)
system.membus.snoopTraffic                          0                       # Total snoop traffic (bytes)
system.membus.snoop_fanout::samples              9217                       # Request fanout histogram
system.membus.snoop_fanout::mean                    0                       # Request fanout histogram
system.membus.snoop_fanout::stdev                   0                       # Request fanout histogram
system.membus.snoop_fanout::underflows              0      0.00%      0.00% # Request fanout histogram
system.membus.snoop_fanout::0                    9217    100.00%    100.00% # Request fanout histogram
system.membus.snoop_fanout::1                       0      0.00%    100.00% # Request fanout histogram
system.membus.snoop_fanout::overflows               0      0.00%    100.00% # Request fanout histogram
system.membus.snoop_fanout::min_value               0                       # Request fanout histogram
system.membus.snoop_fanout::max_value               0                       # Request fanout histogram
system.membus.snoop_fanout::total                9217                       # Request fanout histogram
system.membus.respLayer1.occupancy           48779000                       # Layer occupancy (ticks)
system.membus.respLayer1.utilization              6.2                       # Layer utilization (%)
system.membus.reqLayer0.occupancy            30566000                       # Layer occupancy (ticks)
system.membus.reqLayer0.utilization               3.9                       # Layer utilization (%)
system.voltage_domain.voltage                       1                       # Voltage in Volts
system.clk_domain.clock                          1000                       # Clock period in ticks
system.cpu0.pwrStateResidencyTicks::ON      783599500                       # Cumulative time (in ticks) in various power states
system.cpu0.icache.pwrStateResidencyTicks::UNDEFINED    783599500                       # Cumulative time (in ticks) in various power states
system.cpu0.icache.demand_hits::.cpu0.inst       291222                       # number of demand (read+write) hits
system.cpu0.icache.demand_hits::total          291222                       # number of demand (read+write) hits
system.cpu0.icache.overall_hits::.cpu0.inst       291222                       # number of overall hits
system.cpu0.icache.overall_hits::total         291222                       # number of overall hits
system.cpu0.icache.demand_misses::.cpu0.inst         2230                       # number of demand (read+write) misses
system.cpu0.icache.demand_misses::total          2230                       # number of demand (read+write) misses
system.cpu0.icache.overall_misses::.cpu0.inst         2230                       # number of overall misses
system.cpu0.icache.overall_misses::total         2230                       # number of overall misses
system.cpu0.icache.demand_miss_latency::.cpu0.inst     60920500                       # number of demand (read+write) miss cycles
system.cpu0.icache.demand_miss_latency::total     60920500                       # number of demand (read+write) miss cycles
system.cpu0.icache.overall_miss_latency::.cpu0.inst     60920500                       # number of overall miss cycles
system.cpu0.icache.overall_miss_latency::total     60920500                       # number of overall miss cycles
system.cpu0.icache.demand_accesses::.cpu0.inst       293452                       # number of demand (read+write) accesses
system.cpu0.icache.demand_accesses::total       293452                       # number of demand (read+write) accesses
system.cpu0.icache.overall_accesses::.cpu0.inst       293452                       # number of overall (read+write) accesses
system.cpu0.icache.overall_accesses::total       293452                       # number of overall (read+write) accesses
system.cpu0.icache.demand_miss_rate::.cpu0.inst     0.007599                       # miss rate for demand accesses
system.cpu0.icache.demand_miss_rate::total     0.007599                       # miss rate for demand accesses
system.cpu0.icache.overall_miss_rate::.cpu0.inst     0.007599                       # miss rate for overall accesses
system.cpu0.icache.overall_miss_rate::total     0.007599                       # miss rate for overall accesses
system.cpu0.icache.demand_avg_miss_latency::.cpu0.inst 27318.609865                       # average overall miss latency
system.cpu0.icache.demand_avg_miss_latency::total 27318.609865                       # average overall miss latency
system.cpu0.icache.overall_avg_miss_latency::.cpu0.inst 27318.609865                       # average overall miss latency
system.cpu0.icache.overall_avg_miss_latency::total 27318.609865                       # average overall miss latency
system.cpu0.icache.blocked_cycles::no_mshrs            0                       # number of cycles access was blocked
system.cpu0.icache.blocked_cycles::no_targets            0                       # number of cycles access was blocked
system.cpu0.icache.blocked::no_mshrs                0                       # number of cycles access was blocked
system.cpu0.icache.blocked::no_targets              0                       # number of cycles access was blocked
system.cpu0.icache.avg_blocked_cycles::no_mshrs          nan                       # average number of cycles each access was blocked
system.cpu0.icache.avg_blocked_cycles::no_targets          nan                       # average number of cycles each access was blocked
system.cpu0.icache.writebacks::.writebacks         1884                       # number of writebacks
system.cpu0.icache.writebacks::total             1884                       # number of writebacks
system.cpu0.icache.demand_mshr_misses::.cpu0.inst         2230                       # number of demand (read+write) MSHR misses
system.cpu0.icache.demand_mshr_misses::total         2230                       # number of demand (read+write) MSHR misses
system.cpu0.icache.overall_mshr_misses::.cpu0.inst         2230                       # number of overall MSHR misses
system.cpu0.icache.overall_mshr_misses::total         2230                       # number of overall MSHR misses
system.cpu0.icache.demand_mshr_miss_latency::.cpu0.inst     58690500                       # number of demand (read+write) MSHR miss cycles
system.cpu0.icache.demand_mshr_miss_latency::total     58690500                       # number of demand (read+write) MSHR miss cycles
system.cpu0.icache.overall_mshr_miss_latency::.cpu0.inst     58690500                       # number of overall MSHR miss cycles
system.cpu0.icache.overall_mshr_miss_latency::total     58690500                       # number of overall MSHR miss cycles
system.cpu0.icache.demand_mshr_miss_rate::.cpu0.inst     0.007599                       # mshr miss rate for demand accesses
system.cpu0.icache.demand_mshr_miss_rate::total     0.007599                       # mshr miss rate for demand accesses
system.cpu0.icache.overall_mshr_miss_rate::.cpu0.inst     0.007599                       # mshr miss rate for overall accesses
system.cpu0.icache.overall_mshr_miss_rate::total     0.007599                       # mshr miss rate for overall accesses
system.cpu0.icache.demand_avg_mshr_miss_latency::.cpu0.inst 26318.609865                       # average overall mshr miss latency
system.cpu0.icache.demand_avg_mshr_miss_latency::total 26318.609865                       # average overall mshr miss latency
system.cpu0.icache.overall_avg_mshr_miss_latency::.cpu0.inst 26318.609865                       # average overall mshr miss latency
system.cpu0.icache.overall_avg_mshr_miss_latency::total 26318.609865                       # average overall mshr miss latency
system.cpu0.icache.replacements                  1884                       # number of replacements
system.cpu0.icache.ReadReq_hits::.cpu0.inst       291222                       # number of ReadReq hits
system.cpu0.icache.ReadReq_hits::total         291222                       # number of ReadReq hits
system.cpu0.icache.ReadReq_misses::.cpu0.inst         2230                       # number of ReadReq misses
system.cpu0.icache.ReadReq_misses::total         2230                       # number of ReadReq misses
system.cpu0.icache.ReadReq_miss_latency::.cpu0.inst     60920500                       # number of ReadReq miss cycles
system.cpu0.icache.ReadReq_miss_latency::total     60920500                       # number of ReadReq miss cycles
system.cpu0.icache.ReadReq_accesses::.cpu0.inst       293452                       # number of ReadReq accesses(hits+misses)
system.cpu0.icache.ReadReq_accesses::total       293452                       # number of ReadReq accesses(hits+misses)
system.cpu0.icache.ReadReq_miss_rate::.cpu0.inst     0.007599                       # miss rate for ReadReq accesses
system.cpu0.icache.ReadReq_miss_rate::total     0.007599                       # miss rate for ReadReq accesses
system.cpu0.icache.ReadReq_avg_miss_latency::.cpu0.inst 27318.609865                       # average ReadReq miss latency
system.cpu0.icache.ReadReq_avg_miss_latency::total 27318.609865                       # average ReadReq miss latency
system.cpu0.icache.ReadReq_mshr_misses::.cpu0.inst         2230                       # number of ReadReq MSHR misses
system.cpu0.icache.ReadReq_mshr_misses::total         2230                       # number of ReadReq MSHR misses
system.cpu0.icache.ReadReq_mshr_miss_latency::.cpu0.inst     58690500                       # number of ReadReq MSHR miss cycles
system.cpu0.icache.ReadReq_mshr_miss_latency::total     58690500                       # number of ReadReq MSHR miss cycles
system.cpu0.icache.ReadReq_mshr_miss_rate::.cpu0.inst     0.007599                       # mshr miss rate for ReadReq accesses
system.cpu0.icache.ReadReq_mshr_miss_rate::total     0.007599                       # mshr miss rate for ReadReq accesses
system.cpu0.icache.ReadReq_avg_mshr_miss_latency::.cpu0.inst 26318.609865                       # average ReadReq mshr miss latency
system.cpu0.icache.ReadReq_avg_mshr_miss_latency::total 26318.609865                       # average ReadReq mshr miss latency
system.cpu0.icache.tags.pwrStateResidencyTicks::UNDEFINED    783599500                       # Cumulative time (in ticks) in various power states
system.cpu0.icache.tags.tagsinuse          336.790459                       # Cycle average of tags in use
system.cpu0.icache.tags.total_refs             293452                       # Total number of references to valid blocks.
system.cpu0.icache.tags.sampled_refs             2230                       # Sample count of references to valid blocks.
system.cpu0.icache.tags.avg_refs           131.592825                       # Average number of references to valid blocks.
system.cpu0.icache.tags.warmup_cycle            87500                       # Cycle when the warmup percentage was hit.
system.cpu0.icache.tags.occ_blocks::.cpu0.inst   336.790459                       # Average occupied blocks per requestor
system.cpu0.icache.tags.occ_percent::.cpu0.inst     0.657794                       # Average percentage of cache occupancy
system.cpu0.icache.tags.occ_percent::total     0.657794                       # Average percentage of cache occupancy
system.cpu0.icache.tags.occ_task_id_blocks::1024          346                       # Occupied blocks per task id
system.cpu0.icache.tags.age_task_id_blocks_1024::0            2                       # Occupied blocks per task id
system.cpu0.icache.tags.age_task_id_blocks_1024::2          344                       # Occupied blocks per task id
system.cpu0.icache.tags.occ_task_id_percent::1024     0.675781                       # Percentage of cache occupancy per task id
system.cpu0.icache.tags.tag_accesses           589134                       # Number of tag accesses
system.cpu0.icache.tags.data_accesses          589134                       # Number of data accesses
system.cpu0.dtb.walker.pwrStateResidencyTicks::UNDEFINED    783599500                       # Cumulative time (in ticks) in various power states
system.cpu0.dtb.stage2_mmu.stage2_tlb.walker.pwrStateResidencyTicks::UNDEFINED    783599500                       # Cumulative time (in ticks) in various power states
system.cpu0.dcache.pwrStateResidencyTicks::UNDEFINED    783599500                       # Cumulative time (in ticks) in various power states
system.cpu0.dcache.demand_hits::.cpu0.data       377398                       # number of demand (read+write) hits
system.cpu0.dcache.demand_hits::total          377398                       # number of demand (read+write) hits
system.cpu0.dcache.overall_hits::.cpu0.data       377420                       # number of overall hits
system.cpu0.dcache.overall_hits::total         377420                       # number of overall hits
system.cpu0.dcache.demand_misses::.cpu0.data         3734                       # number of demand (read+write) misses
system.cpu0.dcache.demand_misses::total          3734                       # number of demand (read+write) misses
system.cpu0.dcache.overall_misses::.cpu0.data         3748                       # number of overall misses
system.cpu0.dcache.overall_misses::total         3748                       # number of overall misses
system.cpu0.dcache.demand_miss_latency::.cpu0.data    321875500                       # number of demand (read+write) miss cycles
system.cpu0.dcache.demand_miss_latency::total    321875500                       # number of demand (read+write) miss cycles
system.cpu0.dcache.overall_miss_latency::.cpu0.data    321875500                       # number of overall miss cycles
system.cpu0.dcache.overall_miss_latency::total    321875500                       # number of overall miss cycles
system.cpu0.dcache.demand_accesses::.cpu0.data       381132                       # number of demand (read+write) accesses
system.cpu0.dcache.demand_accesses::total       381132                       # number of demand (read+write) accesses
system.cpu0.dcache.overall_accesses::.cpu0.data       381168                       # number of overall (read+write) accesses
system.cpu0.dcache.overall_accesses::total       381168                       # number of overall (read+write) accesses
system.cpu0.dcache.demand_miss_rate::.cpu0.data     0.009797                       # miss rate for demand accesses
system.cpu0.dcache.demand_miss_rate::total     0.009797                       # miss rate for demand accesses
system.cpu0.dcache.overall_miss_rate::.cpu0.data     0.009833                       # miss rate for overall accesses
system.cpu0.dcache.overall_miss_rate::total     0.009833                       # miss rate for overall accesses
system.cpu0.dcache.demand_avg_miss_latency::.cpu0.data 86201.258704                       # average overall miss latency
system.cpu0.dcache.demand_avg_miss_latency::total 86201.258704                       # average overall miss latency
system.cpu0.dcache.overall_avg_miss_latency::.cpu0.data 85879.268943                       # average overall miss latency
system.cpu0.dcache.overall_avg_miss_latency::total 85879.268943                       # average overall miss latency
system.cpu0.dcache.blocked_cycles::no_mshrs            0                       # number of cycles access was blocked
system.cpu0.dcache.blocked_cycles::no_targets            0                       # number of cycles access was blocked
system.cpu0.dcache.blocked::no_mshrs                0                       # number of cycles access was blocked
system.cpu0.dcache.blocked::no_targets              0                       # number of cycles access was blocked
system.cpu0.dcache.avg_blocked_cycles::no_mshrs          nan                       # average number of cycles each access was blocked
system.cpu0.dcache.avg_blocked_cycles::no_targets          nan                       # average number of cycles each access was blocked
system.cpu0.dcache.writebacks::.writebacks          959                       # number of writebacks
system.cpu0.dcache.writebacks::total              959                       # number of writebacks
system.cpu0.dcache.demand_mshr_hits::.cpu0.data         1637                       # number of demand (read+write) MSHR hits
system.cpu0.dcache.demand_mshr_hits::total         1637                       # number of demand (read+write) MSHR hits
system.cpu0.dcache.overall_mshr_hits::.cpu0.data         1637                       # number of overall MSHR hits
system.cpu0.dcache.overall_mshr_hits::total         1637                       # number of overall MSHR hits
system.cpu0.dcache.demand_mshr_misses::.cpu0.data         2097                       # number of demand (read+write) MSHR misses
system.cpu0.dcache.demand_mshr_misses::total         2097                       # number of demand (read+write) MSHR misses
system.cpu0.dcache.overall_mshr_misses::.cpu0.data         2107                       # number of overall MSHR misses
system.cpu0.dcache.overall_mshr_misses::total         2107                       # number of overall MSHR misses
system.cpu0.dcache.demand_mshr_miss_latency::.cpu0.data    179987500                       # number of demand (read+write) MSHR miss cycles
system.cpu0.dcache.demand_mshr_miss_latency::total    179987500                       # number of demand (read+write) MSHR miss cycles
system.cpu0.dcache.overall_mshr_miss_latency::.cpu0.data    181158500                       # number of overall MSHR miss cycles
system.cpu0.dcache.overall_mshr_miss_latency::total    181158500                       # number of overall MSHR miss cycles
system.cpu0.dcache.demand_mshr_miss_rate::.cpu0.data     0.005502                       # mshr miss rate for demand accesses
system.cpu0.dcache.demand_mshr_miss_rate::total     0.005502                       # mshr miss rate for demand accesses
system.cpu0.dcache.overall_mshr_miss_rate::.cpu0.data     0.005528                       # mshr miss rate for overall accesses
system.cpu0.dcache.overall_mshr_miss_rate::total     0.005528                       # mshr miss rate for overall accesses
system.cpu0.dcache.demand_avg_mshr_miss_latency::.cpu0.data 85830.948975                       # average overall mshr miss latency
system.cpu0.dcache.demand_avg_mshr_miss_latency::total 85830.948975                       # average overall mshr miss latency
system.cpu0.dcache.overall_avg_mshr_miss_latency::.cpu0.data 85979.354533                       # average overall mshr miss latency
system.cpu0.dcache.overall_avg_mshr_miss_latency::total 85979.354533                       # average overall mshr miss latency
system.cpu0.dcache.replacements                  1085                       # number of replacements
system.cpu0.dcache.ReadReq_hits::.cpu0.data       213059                       # number of ReadReq hits
system.cpu0.dcache.ReadReq_hits::total         213059                       # number of ReadReq hits
system.cpu0.dcache.ReadReq_misses::.cpu0.data          171                       # number of ReadReq misses
system.cpu0.dcache.ReadReq_misses::total          171                       # number of ReadReq misses
system.cpu0.dcache.ReadReq_miss_latency::.cpu0.data     14329000                       # number of ReadReq miss cycles
system.cpu0.dcache.ReadReq_miss_latency::total     14329000                       # number of ReadReq miss cycles
system.cpu0.dcache.ReadReq_accesses::.cpu0.data       213230                       # number of ReadReq accesses(hits+misses)
system.cpu0.dcache.ReadReq_accesses::total       213230                       # number of ReadReq accesses(hits+misses)
system.cpu0.dcache.ReadReq_miss_rate::.cpu0.data     0.000802                       # miss rate for ReadReq accesses
system.cpu0.dcache.ReadReq_miss_rate::total     0.000802                       # miss rate for ReadReq accesses
system.cpu0.dcache.ReadReq_avg_miss_latency::.cpu0.data 83795.321637                       # average ReadReq miss latency
system.cpu0.dcache.ReadReq_avg_miss_latency::total 83795.321637                       # average ReadReq miss latency
system.cpu0.dcache.ReadReq_mshr_hits::.cpu0.data           11                       # number of ReadReq MSHR hits
system.cpu0.dcache.ReadReq_mshr_hits::total           11                       # number of ReadReq MSHR hits
system.cpu0.dcache.ReadReq_mshr_misses::.cpu0.data          160                       # number of ReadReq MSHR misses
system.cpu0.dcache.ReadReq_mshr_misses::total          160                       # number of ReadReq MSHR misses
system.cpu0.dcache.ReadReq_mshr_miss_latency::.cpu0.data     13060500                       # number of ReadReq MSHR miss cycles
system.cpu0.dcache.ReadReq_mshr_miss_latency::total     13060500                       # number of ReadReq MSHR miss cycles
system.cpu0.dcache.ReadReq_mshr_miss_rate::.cpu0.data     0.000750                       # mshr miss rate for ReadReq accesses
system.cpu0.dcache.ReadReq_mshr_miss_rate::total     0.000750                       # mshr miss rate for ReadReq accesses
system.cpu0.dcache.ReadReq_avg_mshr_miss_latency::.cpu0.data 81628.125000                       # average ReadReq mshr miss latency
system.cpu0.dcache.ReadReq_avg_mshr_miss_latency::total 81628.125000                       # average ReadReq mshr miss latency
system.cpu0.dcache.WriteReq_hits::.cpu0.data       164339                       # number of WriteReq hits
system.cpu0.dcache.WriteReq_hits::total        164339                       # number of WriteReq hits
system.cpu0.dcache.WriteReq_misses::.cpu0.data         3563                       # number of WriteReq misses
system.cpu0.dcache.WriteReq_misses::total         3563                       # number of WriteReq misses
system.cpu0.dcache.WriteReq_miss_latency::.cpu0.data    307546500                       # number of WriteReq miss cycles
system.cpu0.dcache.WriteReq_miss_latency::total    307546500                       # number of WriteReq miss cycles
system.cpu0.dcache.WriteReq_accesses::.cpu0.data       167902                       # number of WriteReq accesses(hits+misses)
system.cpu0.dcache.WriteReq_accesses::total       167902                       # number of WriteReq accesses(hits+misses)
system.cpu0.dcache.WriteReq_miss_rate::.cpu0.data     0.021221                       # miss rate for WriteReq accesses
system.cpu0.dcache.WriteReq_miss_rate::total     0.021221                       # miss rate for WriteReq accesses
system.cpu0.dcache.WriteReq_avg_miss_latency::.cpu0.data 86316.727477                       # average WriteReq miss latency
system.cpu0.dcache.WriteReq_avg_miss_latency::total 86316.727477                       # average WriteReq miss latency
system.cpu0.dcache.WriteReq_mshr_hits::.cpu0.data         1626                       # number of WriteReq MSHR hits
system.cpu0.dcache.WriteReq_mshr_hits::total         1626                       # number of WriteReq MSHR hits
system.cpu0.dcache.WriteReq_mshr_misses::.cpu0.data         1937                       # number of WriteReq MSHR misses
system.cpu0.dcache.WriteReq_mshr_misses::total         1937                       # number of WriteReq MSHR misses
system.cpu0.dcache.WriteReq_mshr_miss_latency::.cpu0.data    166927000                       # number of WriteReq MSHR miss cycles
system.cpu0.dcache.WriteReq_mshr_miss_latency::total    166927000                       # number of WriteReq MSHR miss cycles
system.cpu0.dcache.WriteReq_mshr_miss_rate::.cpu0.data     0.011536                       # mshr miss rate for WriteReq accesses
system.cpu0.dcache.WriteReq_mshr_miss_rate::total     0.011536                       # mshr miss rate for WriteReq accesses
system.cpu0.dcache.WriteReq_avg_mshr_miss_latency::.cpu0.data 86178.110480                       # average WriteReq mshr miss latency
system.cpu0.dcache.WriteReq_avg_mshr_miss_latency::total 86178.110480                       # average WriteReq mshr miss latency
system.cpu0.dcache.SoftPFReq_hits::.cpu0.data           22                       # number of SoftPFReq hits
system.cpu0.dcache.SoftPFReq_hits::total           22                       # number of SoftPFReq hits
system.cpu0.dcache.SoftPFReq_misses::.cpu0.data           14                       # number of SoftPFReq misses
system.cpu0.dcache.SoftPFReq_misses::total           14                       # number of SoftPFReq misses
system.cpu0.dcache.SoftPFReq_accesses::.cpu0.data           36                       # number of SoftPFReq accesses(hits+misses)
system.cpu0.dcache.SoftPFReq_accesses::total           36                       # number of SoftPFReq accesses(hits+misses)
system.cpu0.dcache.SoftPFReq_miss_rate::.cpu0.data     0.388889                       # miss rate for SoftPFReq accesses
system.cpu0.dcache.SoftPFReq_miss_rate::total     0.388889                       # miss rate for SoftPFReq accesses
system.cpu0.dcache.SoftPFReq_mshr_misses::.cpu0.data           10                       # number of SoftPFReq MSHR misses
system.cpu0.dcache.SoftPFReq_mshr_misses::total           10                       # number of SoftPFReq MSHR misses
system.cpu0.dcache.SoftPFReq_mshr_miss_latency::.cpu0.data      1171000                       # number of SoftPFReq MSHR miss cycles
system.cpu0.dcache.SoftPFReq_mshr_miss_latency::total      1171000                       # number of SoftPFReq MSHR miss cycles
system.cpu0.dcache.SoftPFReq_mshr_miss_rate::.cpu0.data     0.277778                       # mshr miss rate for SoftPFReq accesses
system.cpu0.dcache.SoftPFReq_mshr_miss_rate::total     0.277778                       # mshr miss rate for SoftPFReq accesses
system.cpu0.dcache.SoftPFReq_avg_mshr_miss_latency::.cpu0.data       117100                       # average SoftPFReq mshr miss latency
system.cpu0.dcache.SoftPFReq_avg_mshr_miss_latency::total       117100                       # average SoftPFReq mshr miss latency
system.cpu0.dcache.LoadLockedReq_hits::.cpu0.data         1195                       # number of LoadLockedReq hits
system.cpu0.dcache.LoadLockedReq_hits::total         1195                       # number of LoadLockedReq hits
system.cpu0.dcache.LoadLockedReq_misses::.cpu0.data            2                       # number of LoadLockedReq misses
system.cpu0.dcache.LoadLockedReq_misses::total            2                       # number of LoadLockedReq misses
system.cpu0.dcache.LoadLockedReq_miss_latency::.cpu0.data       173000                       # number of LoadLockedReq miss cycles
system.cpu0.dcache.LoadLockedReq_miss_latency::total       173000                       # number of LoadLockedReq miss cycles
system.cpu0.dcache.LoadLockedReq_accesses::.cpu0.data         1197                       # number of LoadLockedReq accesses(hits+misses)
system.cpu0.dcache.LoadLockedReq_accesses::total         1197                       # number of LoadLockedReq accesses(hits+misses)
system.cpu0.dcache.LoadLockedReq_miss_rate::.cpu0.data     0.001671                       # miss rate for LoadLockedReq accesses
system.cpu0.dcache.LoadLockedReq_miss_rate::total     0.001671                       # miss rate for LoadLockedReq accesses
system.cpu0.dcache.LoadLockedReq_avg_miss_latency::.cpu0.data        86500                       # average LoadLockedReq miss latency
system.cpu0.dcache.LoadLockedReq_avg_miss_latency::total        86500                       # average LoadLockedReq miss latency
system.cpu0.dcache.LoadLockedReq_mshr_misses::.cpu0.data            2                       # number of LoadLockedReq MSHR misses
system.cpu0.dcache.LoadLockedReq_mshr_misses::total            2                       # number of LoadLockedReq MSHR misses
system.cpu0.dcache.LoadLockedReq_mshr_miss_latency::.cpu0.data       171000                       # number of LoadLockedReq MSHR miss cycles
system.cpu0.dcache.LoadLockedReq_mshr_miss_latency::total       171000                       # number of LoadLockedReq MSHR miss cycles
[...]
system.mem_ctrls.wrQLenPdf::51                      0                       # What write queue length does an incoming req see
system.mem_ctrls.wrQLenPdf::52                      0                       # What write queue length does an incoming req see
system.mem_ctrls.wrQLenPdf::53                      0                       # What write queue length does an incoming req see
system.mem_ctrls.wrQLenPdf::54                      0                       # What write queue length does an incoming req see
system.mem_ctrls.wrQLenPdf::55                      0                       # What write queue length does an incoming req see
system.mem_ctrls.wrQLenPdf::56                      0                       # What write queue length does an incoming req see
system.mem_ctrls.wrQLenPdf::57                      0                       # What write queue length does an incoming req see
system.mem_ctrls.wrQLenPdf::58                      0                       # What write queue length does an incoming req see
system.mem_ctrls.wrQLenPdf::59                      0                       # What write queue length does an incoming req see
system.mem_ctrls.wrQLenPdf::60                      0                       # What write queue length does an incoming req see
system.mem_ctrls.wrQLenPdf::61                      0                       # What write queue length does an incoming req see
system.mem_ctrls.wrQLenPdf::62                      0                       # What write queue length does an incoming req see
system.mem_ctrls.wrQLenPdf::63                      0                       # What write queue length does an incoming req see
system.mem_ctrls.bytesPerActivate::samples         1730                       # Bytes accessed per row activation
system.mem_ctrls.bytesPerActivate::mean    493.280925                       # Bytes accessed per row activation
system.mem_ctrls.bytesPerActivate::gmean   310.816846                       # Bytes accessed per row activation
system.mem_ctrls.bytesPerActivate::stdev   385.170385                       # Bytes accessed per row activation
system.mem_ctrls.bytesPerActivate::0-127          406     23.47%     23.47% # Bytes accessed per row activation
system.mem_ctrls.bytesPerActivate::128-255          237     13.70%     37.17% # Bytes accessed per row activation
system.mem_ctrls.bytesPerActivate::256-383          204     11.79%     48.96% # Bytes accessed per row activation
system.mem_ctrls.bytesPerActivate::384-511          118      6.82%     55.78% # Bytes accessed per row activation
system.mem_ctrls.bytesPerActivate::512-639          110      6.36%     62.14% # Bytes accessed per row activation
system.mem_ctrls.bytesPerActivate::640-767           91      5.26%     67.40% # Bytes accessed per row activation
system.mem_ctrls.bytesPerActivate::768-895           66      3.82%     71.21% # Bytes accessed per row activation
system.mem_ctrls.bytesPerActivate::896-1023           49      2.83%     74.05% # Bytes accessed per row activation
system.mem_ctrls.bytesPerActivate::1024-1151          449     25.95%    100.00% # Bytes accessed per row activation
system.mem_ctrls.bytesPerActivate::total         1730                       # Bytes accessed per row activation
system.mem_ctrls.rdPerTurnAround::samples          259                       # Reads before turning the bus around for writes
system.mem_ctrls.rdPerTurnAround::mean      35.525097                       # Reads before turning the bus around for writes
system.mem_ctrls.rdPerTurnAround::gmean     22.226830                       # Reads before turning the bus around for writes
system.mem_ctrls.rdPerTurnAround::stdev    169.117048                       # Reads before turning the bus around for writes
system.mem_ctrls.rdPerTurnAround::0-127           255     98.46%     98.46% # Reads before turning the bus around for writes
system.mem_ctrls.rdPerTurnAround::128-255            1      0.39%     98.84% # Reads before turning the bus around for writes
system.mem_ctrls.rdPerTurnAround::384-511            1      0.39%     99.23% # Reads before turning the bus around for writes
system.mem_ctrls.rdPerTurnAround::512-639            1      0.39%     99.61% # Reads before turning the bus around for writes
system.mem_ctrls.rdPerTurnAround::2560-2687            1      0.39%    100.00% # Reads before turning the bus around for writes
system.mem_ctrls.rdPerTurnAround::total           259                       # Reads before turning the bus around for writes
system.mem_ctrls.wrPerTurnAround::samples          259                       # Writes before turning the bus around for reads
system.mem_ctrls.wrPerTurnAround::mean             16                       # Writes before turning the bus around for reads
system.mem_ctrls.wrPerTurnAround::gmean     16.000000                       # Writes before turning the bus around for reads
system.mem_ctrls.wrPerTurnAround::16              259    100.00%    100.00% # Writes before turning the bus around for reads
system.mem_ctrls.wrPerTurnAround::total           259                       # Writes before turning the bus around for reads
system.mem_ctrls.bytesReadDRAM                 589888                       # Total number of bytes read from DRAM
system.mem_ctrls.bytesReadWrQ                       0                       # Total number of bytes read from write queue
system.mem_ctrls.bytesWritten                  265216                       # Total number of bytes written to DRAM
system.mem_ctrls.bytesReadSys                  589888                       # Total read bytes from the system interface side
system.mem_ctrls.bytesWrittenSys               267072                       # Total written bytes from the system interface side
system.mem_ctrls.avgRdBW                       752.79                       # Average DRAM read bandwidth in MiByte/s
system.mem_ctrls.avgWrBW                       338.46                       # Average achieved write bandwidth in MiByte/s
system.mem_ctrls.avgRdBWSys                    752.79                       # Average system read bandwidth in MiByte/s
system.mem_ctrls.avgWrBWSys                    340.83                       # Average system write bandwidth in MiByte/s
system.mem_ctrls.peakBW                      12800.00                       # Theoretical peak bandwidth in MiByte/s
system.mem_ctrls.busUtil                         8.53                       # Data bus utilization in percentage
system.mem_ctrls.busUtilRead                     5.88                       # Data bus utilization in percentage for reads
system.mem_ctrls.busUtilWrite                    2.64                       # Data bus utilization in percentage for writes
system.mem_ctrls.totGap                     783560000                       # Total gap between requests
system.mem_ctrls.avgGap                      58518.30                       # Average gap between requests
system.mem_ctrls.masterReadBytes::.cpu0.inst        29248                       # Per-master bytes read from memory
system.mem_ctrls.masterReadBytes::.cpu0.data       133760                       # Per-master bytes read from memory
system.mem_ctrls.masterReadBytes::.cpu1.inst        24832                       # Per-master bytes read from memory
system.mem_ctrls.masterReadBytes::.cpu1.data       402048                       # Per-master bytes read from memory
system.mem_ctrls.masterWriteBytes::.writebacks       265216                       # Per-master bytes write to memory
system.mem_ctrls.masterReadRate::.cpu0.inst 37325189.717451326549                       # Per-master bytes read from memory rate (Bytes/sec)
system.mem_ctrls.masterReadRate::.cpu0.data 170699445.316134065390                       # Per-master bytes read from memory rate (Bytes/sec)
system.mem_ctrls.masterReadRate::.cpu1.inst 31689657.790746420622                       # Per-master bytes read from memory rate (Bytes/sec)
system.mem_ctrls.masterReadRate::.cpu1.data 513078428.457394361496                       # Per-master bytes read from memory rate (Bytes/sec)
system.mem_ctrls.masterWriteRate::.writebacks 338458613.105291664600                       # Per-master bytes write to memory rate (Bytes/sec)
system.mem_ctrls.masterReadAccesses::.cpu0.inst          457                       # Per-master read serviced memory accesses
system.mem_ctrls.masterReadAccesses::.cpu0.data         2090                       # Per-master read serviced memory accesses
system.mem_ctrls.masterReadAccesses::.cpu1.inst          388                       # Per-master read serviced memory accesses
system.mem_ctrls.masterReadAccesses::.cpu1.data         6282                       # Per-master read serviced memory accesses
system.mem_ctrls.masterWriteAccesses::.writebacks         4173                       # Per-master write serviced memory accesses
system.mem_ctrls.masterReadTotalLat::.cpu0.inst     13407750                       # Per-master read total memory access latency
system.mem_ctrls.masterReadTotalLat::.cpu0.data     70917000                       # Per-master read total memory access latency
system.mem_ctrls.masterReadTotalLat::.cpu1.inst     11944000                       # Per-master read total memory access latency
system.mem_ctrls.masterReadTotalLat::.cpu1.data    177791250                       # Per-master read total memory access latency
system.mem_ctrls.masterWriteTotalLat::.writebacks  15032017750                       # Per-master write total memory access latency
system.mem_ctrls.masterReadAvgLat::.cpu0.inst     29338.62                       # Per-master read average memory access latency
system.mem_ctrls.masterReadAvgLat::.cpu0.data     33931.58                       # Per-master read average memory access latency
system.mem_ctrls.masterReadAvgLat::.cpu1.inst     30783.51                       # Per-master read average memory access latency
system.mem_ctrls.masterReadAvgLat::.cpu1.data     28301.70                       # Per-master read average memory access latency
system.mem_ctrls.masterWriteAvgLat::.writebacks   3602208.90                       # Per-master write average memory access latency
system.mem_ctrls.pageHitRate                    86.83                       # Row buffer hit rate, read and write combined
system.mem_ctrls.rank1.actEnergy              5697720                       # Energy for activate commands per rank (pJ)
system.mem_ctrls.rank1.preEnergy              3020820                       # Energy for precharge commands per rank (pJ)
system.mem_ctrls.rank1.readEnergy            32337060                       # Energy for read commands per rank (pJ)
system.mem_ctrls.rank1.writeEnergy           11019420                       # Energy for write commands per rank (pJ)
system.mem_ctrls.rank1.refreshEnergy     61464000.000000                       # Energy for refresh commands per rank (pJ)
system.mem_ctrls.rank1.actBackEnergy        347267370                       # Energy for active background per rank (pJ)
system.mem_ctrls.rank1.preBackEnergy          8466720                       # Energy for precharge background per rank (pJ)
system.mem_ctrls.rank1.actPowerDownEnergy            0                       # Energy for active power-down per rank (pJ)
system.mem_ctrls.rank1.prePowerDownEnergy            0                       # Energy for precharge power-down per rank (pJ)
system.mem_ctrls.rank1.selfRefreshEnergy            0                       # Energy for self refresh per rank (pJ)
system.mem_ctrls.rank1.totalEnergy          469273110                       # Total energy per rank (pJ)
system.mem_ctrls.rank1.averagePower        598.868567                       # Core power per rank (mW)
system.mem_ctrls.rank1.totalIdleTime                0                       # Total Idle time Per DRAM Rank
system.mem_ctrls.rank1.memoryStateTime::IDLE     18882250                       # Time in different power states
system.mem_ctrls.rank1.memoryStateTime::REF     26000000                       # Time in different power states
system.mem_ctrls.rank1.memoryStateTime::SREF            0                       # Time in different power states
system.mem_ctrls.rank1.memoryStateTime::PRE_PDN            0                       # Time in different power states
system.mem_ctrls.rank1.memoryStateTime::ACT    738717250                       # Time in different power states
system.mem_ctrls.rank1.memoryStateTime::ACT_PDN            0                       # Time in different power states
system.mem_ctrls.rank0.actEnergy              6690180                       # Energy for activate commands per rank (pJ)
system.mem_ctrls.rank0.preEnergy              3544530                       # Energy for precharge commands per rank (pJ)
system.mem_ctrls.rank0.readEnergy            33472320                       # Energy for read commands per rank (pJ)
system.mem_ctrls.rank0.writeEnergy           10612260                       # Energy for write commands per rank (pJ)
system.mem_ctrls.rank0.refreshEnergy     61464000.000000                       # Energy for refresh commands per rank (pJ)
system.mem_ctrls.rank0.actBackEnergy        348526500                       # Energy for active background per rank (pJ)
system.mem_ctrls.rank0.preBackEnergy          7406400                       # Energy for precharge background per rank (pJ)
system.mem_ctrls.rank0.actPowerDownEnergy            0                       # Energy for active power-down per rank (pJ)
system.mem_ctrls.rank0.prePowerDownEnergy            0                       # Energy for precharge power-down per rank (pJ)
system.mem_ctrls.rank0.selfRefreshEnergy            0                       # Energy for self refresh per rank (pJ)
system.mem_ctrls.rank0.totalEnergy          471716190                       # Total energy per rank (pJ)
system.mem_ctrls.rank0.averagePower        601.986334                       # Core power per rank (mW)
system.mem_ctrls.rank0.totalIdleTime                0                       # Total Idle time Per DRAM Rank
system.mem_ctrls.rank0.memoryStateTime::IDLE     15714000                       # Time in different power states
system.mem_ctrls.rank0.memoryStateTime::REF     26000000                       # Time in different power states
system.mem_ctrls.rank0.memoryStateTime::SREF            0                       # Time in different power states
system.mem_ctrls.rank0.memoryStateTime::PRE_PDN            0                       # Time in different power states
system.mem_ctrls.rank0.memoryStateTime::ACT    741885500                       # Time in different power states
system.mem_ctrls.rank0.memoryStateTime::ACT_PDN            0                       # Time in different power states
system.cpu_clk_domain.clock                       500                       # Clock period in ticks
system.tol2bus.pwrStateResidencyTicks::UNDEFINED    783599500                       # Cumulative time (in ticks) in various power states
system.tol2bus.trans_dist::ReadResp              2912                       # Transaction distribution
system.tol2bus.trans_dist::WritebackDirty        10336                       # Transaction distribution
system.tol2bus.trans_dist::WritebackClean         1989                       # Transaction distribution
system.tol2bus.trans_dist::CleanEvict             635                       # Transaction distribution
system.tol2bus.trans_dist::ReadExReq             8146                       # Transaction distribution
system.tol2bus.trans_dist::ReadExResp            8145                       # Transaction distribution
system.tol2bus.trans_dist::ReadCleanReq          2651                       # Transaction distribution
system.tol2bus.trans_dist::ReadSharedReq          261                       # Transaction distribution
system.tol2bus.pkt_count_system.cpu0.icache.mem_side::system.l2.cpu_side         6344                       # Packet count per connected master and slave (bytes)
system.tol2bus.pkt_count_system.cpu0.dcache.mem_side::system.l2.cpu_side         5303                       # Packet count per connected master and slave (bytes)
system.tol2bus.pkt_count_system.cpu1.icache.mem_side::system.l2.cpu_side          947                       # Packet count per connected master and slave (bytes)
system.tol2bus.pkt_count_system.cpu1.dcache.mem_side::system.l2.cpu_side        17868                       # Packet count per connected master and slave (bytes)
system.tol2bus.pkt_count::total                 30462                       # Packet count per connected master and slave (bytes)
system.tol2bus.pkt_size_system.cpu0.icache.mem_side::system.l2.cpu_side       263296                       # Cumulative packet size per connected master and slave (bytes)
system.tol2bus.pkt_size_system.cpu0.dcache.mem_side::system.l2.cpu_side       196352                       # Cumulative packet size per connected master and slave (bytes)
system.tol2bus.pkt_size_system.cpu1.icache.mem_side::system.l2.cpu_side        33664                       # Cumulative packet size per connected master and slave (bytes)
system.tol2bus.pkt_size_system.cpu1.dcache.mem_side::system.l2.cpu_side       736064                       # Cumulative packet size per connected master and slave (bytes)
system.tol2bus.pkt_size::total                1229376                       # Cumulative packet size per connected master and slave (bytes)
system.tol2bus.snoops                            4613                       # Total snoops (count)
system.tol2bus.snoopTraffic                    267072                       # Total snoop traffic (bytes)
system.tol2bus.snoop_fanout::samples            15671                       # Request fanout histogram
system.tol2bus.snoop_fanout::mean            0.025525                       # Request fanout histogram
system.tol2bus.snoop_fanout::stdev           0.159728                       # Request fanout histogram
system.tol2bus.snoop_fanout::underflows             0      0.00%      0.00% # Request fanout histogram
system.tol2bus.snoop_fanout::0                  15276     97.48%     97.48% # Request fanout histogram
system.tol2bus.snoop_fanout::1                    390      2.49%     99.97% # Request fanout histogram
system.tol2bus.snoop_fanout::2                      5      0.03%    100.00% # Request fanout histogram
system.tol2bus.snoop_fanout::3                      0      0.00%    100.00% # Request fanout histogram
system.tol2bus.snoop_fanout::4                      0      0.00%    100.00% # Request fanout histogram
system.tol2bus.snoop_fanout::overflows              0      0.00%    100.00% # Request fanout histogram
system.tol2bus.snoop_fanout::min_value              0                       # Request fanout histogram
system.tol2bus.snoop_fanout::max_value              2                       # Request fanout histogram
system.tol2bus.snoop_fanout::total              15671                       # Request fanout histogram
system.tol2bus.reqLayer0.occupancy           17854500                       # Layer occupancy (ticks)
system.tol2bus.reqLayer0.utilization              2.3                       # Layer utilization (%)
system.tol2bus.respLayer5.occupancy           9450989                       # Layer occupancy (ticks)
system.tol2bus.respLayer5.utilization             1.2                       # Layer utilization (%)
system.tol2bus.respLayer4.occupancy            631500                       # Layer occupancy (ticks)
system.tol2bus.respLayer4.utilization             0.1                       # Layer utilization (%)
system.tol2bus.respLayer1.occupancy           3166494                       # Layer occupancy (ticks)
system.tol2bus.respLayer1.utilization             0.4                       # Layer utilization (%)
system.tol2bus.respLayer0.occupancy           3345499                       # Layer occupancy (ticks)
system.tol2bus.respLayer0.utilization             0.4                       # Layer utilization (%)

---------- End Simulation Statistics   ----------
